STS005_prime_MMGBSA_result_2
                    3D
 Schrodinger Suite 2021-3.
148147  0  0  1  0            999 V2000
  188.8260  208.0916  264.1412 C   0  0  0  0  0  0
  189.5393  209.1393  264.5795 N   0  0  0  0  0  0
  189.6688  210.4022  263.8496 C   0  0  1  0  0  0
  190.0265  211.5204  264.8461 C   0  0  0  0  0  0
  190.0529  212.7572  264.3472 N   0  0  0  0  0  0
  190.5201  213.9668  265.0182 C   0  0  1  0  0  0
  190.6862  215.0403  263.9348 C   0  0  0  0  0  0
  191.5079  214.7300  262.9253 N   0  0  0  0  0  0
  191.7970  215.5506  261.7537 C   0  0  1  0  0  0
  193.0909  214.9917  261.1309 C   0  0  0  0  0  0
  193.7345  215.7566  260.2375 N   0  0  0  0  0  0
  194.8869  215.2847  259.4658 C   0  0  1  0  0  0
  194.4121  214.4672  258.2516 C   0  0  0  0  0  0
  195.1621  213.4046  257.9477 N   0  0  0  0  0  0
  195.0687  212.6215  256.7219 C   0  0  1  0  0  0
  195.8173  213.3725  255.6058 C   0  0  0  0  0  0
  195.0984  213.7667  254.5524 N   0  0  0  0  0  0
  188.7242  206.8605  265.0286 C   0  0  0  0  0  0
  188.2554  208.0890  263.0555 O   0  0  0  0  0  0
  190.6992  210.2531  262.6957 C   0  0  0  0  0  0
  190.7848  211.6203  261.4958 S   0  0  0  0  0  0
  192.1168  211.0173  260.0756 S   0  0  0  0  0  0
  191.1126  209.9690  258.9823 C   0  0  0  0  0  0
  191.7096  209.5762  257.6014 C   0  0  2  0  0  0
  190.6311  209.1325  256.6517 N   0  3  0  0  0  0
  192.8150  208.4495  257.6540 C   0  0  0  0  0  0
  192.9396  207.7252  256.6375 O   0  5  0  0  0  0
  193.5677  208.4947  258.6507 O   0  0  0  0  0  0
  190.2747  211.2505  266.0230 O   0  0  0  0  0  0
  189.5571  214.3942  266.1449 C   0  0  0  0  0  0
  190.0308  216.0790  263.9879 O   0  0  0  0  0  0
  190.5639  215.5267  260.8160 C   0  0  0  0  0  0
  190.6674  216.3244  259.4964 C   0  0  0  0  0  0
  189.3026  216.6389  258.8471 C   0  0  0  0  0  0
  188.4735  215.4312  258.6802 N   0  0  0  0  0  0
  187.1500  215.2909  258.8924 C   0  0  0  0  0  0
  186.3355  216.3174  259.1852 N   0  0  0  0  0  0
  186.6325  214.0636  258.8222 N   0  3  0  0  0  0
  193.4960  213.8829  261.4876 O   0  0  0  0  0  0
  195.7906  216.4792  259.0549 C   0  0  0  0  0  0
  196.9707  216.0976  258.1289 C   0  0  0  0  0  0
  198.0192  217.2011  257.9115 C   0  0  0  0  0  0
  198.9698  216.8241  256.8471 N   0  0  0  0  0  0
  198.9890  217.2405  255.5643 C   0  0  0  0  0  0
  198.1176  218.1473  255.0962 N   0  0  0  0  0  0
  199.9010  216.7324  254.7231 N   0  3  0  0  0  0
  195.6142  214.5178  253.4126 C   0  0  1  0  0  0
  194.9149  213.9965  252.1541 C   0  0  0  0  0  0
  195.5741  214.1084  250.9932 N   0  0  0  0  0  0
  195.0221  213.6796  249.7005 C   0  0  1  0  0  0
  195.6738  214.4434  248.5288 C   0  0  0  0  0  0
  193.4461  214.8495  257.5910 O   0  0  0  0  0  0
  197.0219  213.5956  255.7310 O   0  0  0  0  0  0
  195.3285  216.0126  253.6250 C   0  0  0  0  0  0
  193.7871  213.5123  252.2623 O   0  0  0  0  0  0
  196.9961  214.4511  248.4194 N   0  0  0  0  0  0
  194.9800  215.0604  247.7302 O   0  0  0  0  0  0
  195.1220  212.1385  249.5619 C   0  0  0  0  0  0
  194.1861  211.5070  248.5138 C   0  0  0  0  0  0
  194.3673  209.9774  248.4336 C   0  0  0  0  0  0
  193.2638  209.3044  247.7224 N   0  0  0  0  0  0
  192.2622  208.5854  248.2750 C   0  0  0  0  0  0
  191.3499  208.0113  247.4813 N   0  0  0  0  0  0
  192.1403  208.4106  249.6009 N   0  3  0  0  0  0
  195.6721  211.2370  257.0347 C   0  0  0  0  0  0
  195.8400  210.2565  255.8576 C   0  0  0  0  0  0
  196.4823  208.9528  256.3571 C   0  0  0  0  0  0
  196.9021  208.0452  255.2781 N   0  0  0  0  0  0
  197.9431  207.1885  255.3019 C   0  0  0  0  0  0
  198.8466  207.1598  256.2913 N   0  0  0  0  0  0
  198.0890  206.3393  254.2878 N   0  3  0  0  0  0
  189.9938  209.1424  265.4909 H   0  0  0  0  0  0
  188.6947  210.6501  263.4203 H   0  0  0  0  0  0
  189.8499  212.8710  263.3613 H   0  0  0  0  0  0
  191.5053  213.7760  265.4504 H   0  0  0  0  0  0
  192.0638  213.8809  262.9410 H   0  0  0  0  0  0
  191.9860  216.5742  262.0834 H   0  0  0  0  0  0
  193.3212  216.6272  259.9459 H   0  0  0  0  0  0
  195.4834  214.6280  260.1041 H   0  0  0  0  0  0
  195.9706  213.2146  258.5179 H   0  0  0  0  0  0
  194.0191  212.5010  256.4448 H   0  0  0  0  0  0
  194.1264  213.5001  254.4589 H   0  0  0  0  0  0
  189.1906  206.0109  264.5301 H   0  0  0  0  0  0
  189.2033  206.9959  265.9943 H   0  0  0  0  0  0
  187.6752  206.6130  265.1916 H   0  0  0  0  0  0
  191.6982  210.0890  263.1014 H   0  0  0  0  0  0
  190.4559  209.3627  262.1141 H   0  0  0  0  0  0
  190.7887  209.0855  259.5353 H   0  0  0  0  0  0
  190.2074  210.5492  258.8042 H   0  0  0  0  0  0
  192.1455  210.4479  257.1119 H   0  0  0  0  0  0
  191.0475  208.9283  255.7544 H   0  0  0  0  0  0
  190.1798  208.3096  257.0246 H   0  0  0  0  0  0
  189.9015  215.3159  266.6165 H   0  0  0  0  0  0
  188.5527  214.5781  265.7623 H   0  0  0  0  0  0
  189.4873  213.6371  266.9251 H   0  0  0  0  0  0
  190.3349  214.4868  260.5768 H   0  0  0  0  0  0
  189.7022  215.9027  261.3699 H   0  0  0  0  0  0
  191.0990  217.2879  259.7705 H   0  0  0  0  0  0
  191.3553  215.8827  258.7741 H   0  0  0  0  0  0
  188.8035  217.4745  259.3377 H   0  0  0  0  0  0
  189.4900  216.9609  257.8222 H   0  0  0  0  0  0
  188.9908  214.6014  258.4253 H   0  0  0  0  0  0
  185.3440  216.1647  259.3286 H   0  0  0  0  0  0
  186.6996  217.2557  259.2546 H   0  0  0  0  0  0
  185.6684  213.8789  259.0907 H   0  0  0  0  0  0
  195.1860  217.2257  258.5375 H   0  0  0  0  0  0
  196.1725  216.9627  259.9552 H   0  0  0  0  0  0
  197.4818  215.2696  258.6251 H   0  0  0  0  0  0
  196.6334  215.7095  257.1678 H   0  0  0  0  0  0
  197.5846  218.1953  257.8064 H   0  0  0  0  0  0
  198.6474  217.2451  258.8021 H   0  0  0  0  0  0
  199.6474  216.1274  257.1225 H   0  0  0  0  0  0
  198.1646  218.4709  254.1420 H   0  0  0  0  0  0
  197.4312  218.5534  255.7142 H   0  0  0  0  0  0
  199.9418  217.0472  253.7652 H   0  0  0  0  0  0
  196.6899  214.3705  253.3185 H   0  0  0  0  0  0
  196.4763  214.5592  250.9550 H   0  0  0  0  0  0
  193.9641  213.9514  249.7004 H   0  0  0  0  0  0
  195.7420  216.6132  252.8145 H   0  0  0  0  0  0
  194.2570  216.2129  253.6720 H   0  0  0  0  0  0
  195.7722  216.3655  254.5559 H   0  0  0  0  0  0
  197.6019  213.8903  249.0061 H   0  0  0  0  0  0
  197.3965  214.9564  247.6475 H   0  0  0  0  0  0
  194.8601  211.6856  250.5187 H   0  0  0  0  0  0
  196.1565  211.8493  249.3668 H   0  0  0  0  0  0
  194.4693  211.9304  247.5485 H   0  0  0  0  0  0
  193.1427  211.7851  248.6744 H   0  0  0  0  0  0
  194.6131  209.5228  249.3922 H   0  0  0  0  0  0
  195.2311  209.7813  247.7966 H   0  0  0  0  0  0
  193.2771  209.4031  246.7166 H   0  0  0  0  0  0
  190.6255  207.4347  247.8976 H   0  0  0  0  0  0
  191.3883  208.1093  246.4774 H   0  0  0  0  0  0
  192.8016  208.8270  250.2399 H   0  0  0  0  0  0
  196.6584  211.3948  257.4731 H   0  0  0  0  0  0
  195.0724  210.7617  257.8129 H   0  0  0  0  0  0
  194.8358  210.0349  255.4912 H   0  0  0  0  0  0
  196.3963  210.6761  255.0171 H   0  0  0  0  0  0
  197.2574  209.1548  257.0891 H   0  0  0  0  0  0
  195.7199  208.3764  256.8804 H   0  0  0  0  0  0
  196.3327  208.0624  254.4403 H   0  0  0  0  0  0
  199.6565  206.5574  256.2496 H   0  0  0  0  0  0
  198.8491  207.9253  256.9535 H   0  0  0  0  0  0
  198.8452  205.6736  254.2403 H   0  0  0  0  0  0
  191.3889  207.8355  249.9720 H   0  0  0  0  0  0
  187.2255  213.2555  258.6878 H   0  0  0  0  0  0
  200.5725  216.0422  255.0299 H   0  0  0  0  0  0
  197.5217  206.4772  253.4537 H   0  0  0  0  0  0
  189.9556  209.8765  256.5534 H   0  0  0  0  0  0
  1  2  1  0  0  0
  1 18  1  0  0  0
  1 19  2  0  0  0
  2  3  1  0  0  0
  2 72  1  0  0  0
  3  4  1  0  0  0
  3 20  1  0  0  0
  3 73  1  0  0  0
  4  5  1  0  0  0
  4 29  2  0  0  0
  5  6  1  0  0  0
  5 74  1  0  0  0
  6  7  1  0  0  0
  6 30  1  0  0  0
  6 75  1  0  0  0
  7  8  1  0  0  0
  7 31  2  0  0  0
  8  9  1  0  0  0
  8 76  1  0  0  0
  9 10  1  0  0  0
  9 32  1  0  0  0
  9 77  1  0  0  0
 10 11  1  0  0  0
 10 39  2  0  0  0
 11 12  1  0  0  0
 11 78  1  0  0  0
 12 13  1  0  0  0
 12 40  1  0  0  0
 12 79  1  0  0  0
 13 14  1  0  0  0
 13 52  2  0  0  0
 14 15  1  0  0  0
 14 80  1  0  0  0
 15 16  1  0  0  0
 15 65  1  0  0  0
 15 81  1  0  0  0
 16 17  1  0  0  0
 16 53  2  0  0  0
 17 47  1  0  0  0
 17 82  1  0  0  0
 18 83  1  0  0  0
 18 84  1  0  0  0
 18 85  1  0  0  0
 20 21  1  0  0  0
 20 86  1  0  0  0
 20 87  1  0  0  0
 21 22  1  0  0  0
 22 23  1  0  0  0
 23 24  1  0  0  0
 23 88  1  0  0  0
 23 89  1  0  0  0
 24 25  1  0  0  0
 24 26  1  0  0  0
 24 90  1  0  0  0
 25 91  1  0  0  0
 25 92  1  0  0  0
 25148  1  0  0  0
 26 27  1  0  0  0
 26 28  2  0  0  0
 30 93  1  0  0  0
 30 94  1  0  0  0
 30 95  1  0  0  0
 32 33  1  0  0  0
 32 96  1  0  0  0
 32 97  1  0  0  0
 33 34  1  0  0  0
 33 98  1  0  0  0
 33 99  1  0  0  0
 34 35  1  0  0  0
 34100  1  0  0  0
 34101  1  0  0  0
 35 36  1  0  0  0
 35102  1  0  0  0
 36 37  1  0  0  0
 36 38  2  0  0  0
 37103  1  0  0  0
 37104  1  0  0  0
 38105  1  0  0  0
 38145  1  0  0  0
 40 41  1  0  0  0
 40106  1  0  0  0
 40107  1  0  0  0
 41 42  1  0  0  0
 41108  1  0  0  0
 41109  1  0  0  0
 42 43  1  0  0  0
 42110  1  0  0  0
 42111  1  0  0  0
 43 44  1  0  0  0
 43112  1  0  0  0
 44 45  1  0  0  0
 44 46  2  0  0  0
 45113  1  0  0  0
 45114  1  0  0  0
 46115  1  0  0  0
 46146  1  0  0  0
 47 48  1  0  0  0
 47 54  1  0  0  0
 47116  1  0  0  0
 48 49  1  0  0  0
 48 55  2  0  0  0
 49 50  1  0  0  0
 49117  1  0  0  0
 50 51  1  0  0  0
 50 58  1  0  0  0
 50118  1  0  0  0
 51 56  1  0  0  0
 51 57  2  0  0  0
 54119  1  0  0  0
 54120  1  0  0  0
 54121  1  0  0  0
 56122  1  0  0  0
 56123  1  0  0  0
 58 59  1  0  0  0
 58124  1  0  0  0
 58125  1  0  0  0
 59 60  1  0  0  0
 59126  1  0  0  0
 59127  1  0  0  0
 60 61  1  0  0  0
 60128  1  0  0  0
 60129  1  0  0  0
 61 62  1  0  0  0
 61130  1  0  0  0
 62 63  1  0  0  0
 62 64  2  0  0  0
 63131  1  0  0  0
 63132  1  0  0  0
 64133  1  0  0  0
 64144  1  0  0  0
 65 66  1  0  0  0
 65134  1  0  0  0
 65135  1  0  0  0
 66 67  1  0  0  0
 66136  1  0  0  0
 66137  1  0  0  0
 67 68  1  0  0  0
 67138  1  0  0  0
 67139  1  0  0  0
 68 69  1  0  0  0
 68140  1  0  0  0
 69 70  1  0  0  0
 69 71  2  0  0  0
 70141  1  0  0  0
 70142  1  0  0  0
 71143  1  0  0  0
 71147  1  0  0  0
M  CHG  6  25   1  27  -1  38   1  46   1  64   1  71   1
M  END
> <s_m_entry_id>
12

> <s_m_entry_name>
STS005-ligand-20230714.88

> <s_m_Source_Path>
D:\xubinbin\STS005

> <s_m_Source_File>
prime_mmgbsa_all-20230714-out.maegz

> <i_m_Source_File_Index>
12

> <s_psp_Prime_MMGBSA_Input_Structure_Hash>
7099d05bbb4fd56e49b3636f2db6d158884fc9a9c066286c7950d868

> <i_psp_number_heavy_atoms>
71

> <b_psp_distorted_structure>
1

> <i_psp_model_num>
0

> <r_psp_Prime_Coulomb>
-43123.7985421187

> <r_psp_Prime_Covalent>
7579.49336698398

> <r_psp_Prime_vdW>
-6886.66417816451

> <r_psp_Prime_Lipo>
-3888.22201035354

> <r_psp_Prime_Solv_GB>
-13145.1594919706

> <r_psp_Prime_Energy>
-60547.0839483851

> <s_psp_Prime_Energy_Force_Field>
S-OPLS

> <s_psp_Prime_Energy_Solvent_Model>
VSGB2.1

> <r_psp_Prime_Bond_Covalent>
955.023959584958

> <r_psp_Prime_Bond_SGB>
111496.243428884

> <r_psp_Prime_Angle_Covalent>
3211.71500949406

> <r_psp_Prime_Angle_SGB>
-44137.35905936

> <r_psp_Prime_Torsion_Covalent>
3412.75439790496

> <r_psp_Prime_NB14_LJ>
7953.13884187291

> <r_psp_Prime_NB14_Lipo>
0

> <r_psp_Prime_NB14_Elec>
48415.9092186011

> <r_psp_Prime_NB14_SGB>
-41238.1201411307

> <r_psp_Prime_NBShort_LJ>
-14074.0687785248

> <r_psp_Prime_NBShort_Lipo>
-3888.22201035354

> <r_psp_Prime_NBShort_Elec>
-95940.6438006612

> <r_psp_Prime_NBShort_SGB>
45243.9171746279

> <r_psp_Prime_NBLong_LJ>
-765.73424151261

> <r_psp_Prime_NBLong_Lipo>
0

> <r_psp_Prime_NBLong_Elec>
4400.93603994141

> <r_psp_Prime_NBLong_SGB>
-4215.87318024417

> <r_psp_Prime_Self_SGB>
-80293.9677147471

> <r_psp_Prime_Hbond>
-774.66500261591

> <r_psp_Prime_Packing>
-136.00913152471

> <r_psp_Prime_SelfCont>
-172.058958621051

> <i_lp_mmshare_version>
54117

> <s_epik_input>
W09IXUMoPU8pW0NAQEhdKFtOSDJdKVtDSDJdU1NbQ0gyXVtDQEBIXShbTkhdQyg9TylbQ0gzXSlDKD1PKVtOSF1bQ0BIXShbQ0gzXSlDKD1PKVtOSF1bQ0BIXShbQ0gyXVtDSDJdW0NIMl1bTkhdL0MoW05IMl0pPU4vW0hdKUMoPU8pW05IXVtDQEhdKFtDSDJdW0NIMl1bQ0gyXVtOSF0vQyhbTkgyXSk9Ti9bSF0pQyg9TylbTkhdW0NASF0oW0NIMl1bQ0gyXVtDSDJdW05IXS9DKFtOSDJdKT1OL1tIXSlDKD1PKVtOSF1bQ0BIXShbQ0gzXSlDKD1PKVtOSF1bQ0BASF0oQyg9TylbTkgyXSlbQ0gyXVtDSDJdW0NIMl1bTkhdL0MoW05IMl0pPU4vW0hd

> <s_epik_cmdline>
J2VwaWtfcHl0aG9uJywgJy1waCcsICc3LjAnLCAnLXRuJywgJzgnLCAnLW1hJywgJzUwMCcsICctaW1hZScsICc8aW5maWxlLm1hZT4nLCAnLW9tYWUnLCAnPG91dGZpbGUubWFlPic=

> <r_epik_Ionization_Penalty>
  0.0181

> <r_epik_Ionization_Penalty_Charging>
  0.0181

> <r_epik_Ionization_Penalty_Neutral>
  0.0000

> <r_epik_State_Penalty>
  0.0144

> <r_epik_Charging_Adjusted_Penalty>
0.0325528121837559

> <i_epik_Tot_Q>
4

> <i_epik_Tot_abs_Q>
6

> <s_epik_Chemistry_Notes>
This compound has an imine and may undergo hydrolysis.

> <i_f3d_flags>
0

> <s_lp_Force_Field>
S-OPLS

> <r_lp_Energy>
14.218505

> <b_lp_Chiralities_Consistent>
1

> <s_lp_Variant>
002-1

> <s_i_glide_gridfile>
glide-grid_D-site

> <i_i_glide_lignum>
175

> <i_i_glide_rotatable_bonds>
47

> <r_i_docking_score>
-8.1312519281259

> <r_i_glide_ligand_efficiency>
-0.114524675044027

> <r_i_glide_ligand_efficiency_sa>
-0.474225806495366

> <r_i_glide_ligand_efficiency_ln>
-1.54507819554042

> <r_glide_XP_GScore>
-8.1456519281259

> <r_i_glide_gscore>
-8.1456519281259

> <r_i_glide_evdw>
-43.5912017822266

> <r_i_glide_ecoul>
-25.3381271362305

> <r_i_glide_energy>
-68.929328918457

> <r_i_glide_einternal>
12.6892356872559

> <r_i_glide_emodel>
-82.4711456298828

> <r_glide_XP_HBond>
-2.24034776668634

> <i_i_glide_confnum>
1

> <i_i_glide_posenum>
26

> <r_i_glide_eff_state_penalty>
0.0144

> <i_glide_XP_PoseRank>
1

> <s_psp_MMGBSA_moved_residues>


> <r_psp_MMGBSA_dG_Bind>
-43.857893816763

> <r_psp_MMGBSA_dG_Bind_Coulomb>
-550.566624134459

> <r_psp_MMGBSA_dG_Bind_Covalent>
5.70134777271687

> <r_psp_MMGBSA_dG_Bind_Hbond>
-6.84226684101293

> <r_psp_MMGBSA_dG_Bind_Lipo>
-3.77490601891668

> <r_psp_MMGBSA_dG_Bind_Packing>
0

> <r_psp_MMGBSA_dG_Bind_SelfCont>
0

> <r_psp_MMGBSA_dG_Bind_Solv_GB>
570.61099445244

> <r_psp_MMGBSA_dG_Bind_vdW>
-58.9864390475368

> <r_psp_Lig_Strain_Energy>
15.8430846042926

> <r_psp_Lig_Strain_Coulomb>
0.951612060547149

> <r_psp_Lig_Strain_Covalent>
5.70134777271603

> <r_psp_Lig_Strain_Hbond>
0

> <r_psp_Lig_Strain_Lipo>
1.63823929888167

> <r_psp_Lig_Strain_Packing>
0

> <r_psp_Lig_Strain_SelfCont>
0

> <r_psp_Lig_Strain_Solv_GB>
-2.42217532891362

> <r_psp_Lig_Strain_vdW>
9.97406080106126

> <r_psp_Ligand_Energy>
-296.353186410363

> <r_psp_Ligand_Coulomb>
-102.940278739262

> <r_psp_Ligand_Covalent>
38.0398432134869

> <r_psp_Ligand_Hbond>
0

> <r_psp_Ligand_Lipo>
-7.39834227281152

> <r_psp_Ligand_Packing>
0

> <r_psp_Ligand_SelfCont>
0

> <r_psp_Ligand_Solv_GB>
-219.426269459586

> <r_psp_Ligand_vdW>
-4.62813915219042

> <r_psp_Complex_Energy>
-60547.0839483851

> <r_psp_Complex_Coulomb>
-43123.7985421187

> <r_psp_Complex_Covalent>
7579.49336698398

> <r_psp_Complex_Hbond>
-774.66500261591

> <r_psp_Complex_Lipo>
-3888.22201035354

> <r_psp_Complex_Packing>
-136.00913152471

> <r_psp_Complex_SelfCont>
-172.058958621051

> <r_psp_Complex_Solv_GB>
-13145.1594919706

> <r_psp_Complex_vdW>
-6886.66417816451

> <r_psp_Receptor_Energy>
-60206.872868158

> <r_psp_Receptor_Coulomb>
-42470.291639245

> <r_psp_Receptor_Covalent>
7535.75217599777

> <r_psp_Receptor_Hbond>
-767.822735774897

> <r_psp_Receptor_Lipo>
-3877.04876206181

> <r_psp_Receptor_Packing>
-136.00913152471

> <r_psp_Receptor_SelfCont>
-172.058958621051

> <r_psp_Receptor_Solv_GB>
-13496.3442169635

> <r_psp_Receptor_vdW>
-6823.04959996478

> <r_psp_MMGBSA_dG_Bind(NS)>
-59.7009784210604

> <r_psp_MMGBSA_dG_Bind(NS)_Coulomb>
-551.518236195006

> <r_psp_MMGBSA_dG_Bind(NS)_Covalent>
9.09494701772928e-13

> <r_psp_MMGBSA_dG_Bind(NS)_Hbond>
-6.84226684101293

> <r_psp_MMGBSA_dG_Bind(NS)_Lipo>
-5.41314531779835

> <r_psp_MMGBSA_dG_Bind(NS)_Packing>
0

> <r_psp_MMGBSA_dG_Bind(NS)_SelfCont>
0

> <r_psp_MMGBSA_dG_Bind(NS)_Solv_GB>
573.033169781353

> <r_psp_MMGBSA_dG_Bind(NS)_vdW>
-68.9604998485984

> <r_psp_Rec_Strain_Energy>
0

> <r_psp_Rec_Strain_Coulomb>
0

> <r_psp_Rec_Strain_Covalent>
0

> <r_psp_Rec_Strain_Hbond>
0

> <r_psp_Rec_Strain_Lipo>
0

> <r_psp_Rec_Strain_Packing>
0

> <r_psp_Rec_Strain_SelfCont>
0

> <r_psp_Rec_Strain_Solv_GB>
0

> <r_psp_Rec_Strain_vdW>
0

> <r_psp_Prime_MMGBSA_ligand_efficiency>
-0.617716814320605

> <r_psp_Prime_MMGBSA_ligand_efficiency_sa>
-0.926575221480908

> <r_psp_Prime_MMGBSA_ligand_efficiency_ln>
-8.33375672499007

> <Name>
2

> <s_m_subgroup_title>
prime_mmgbsa_all-20230714-out

> <s_m_subgroupid>
prime_mmgbsa_all-20230714-out

> <b_m_subgroup_collapsed>
0

$$$$
