STS005_prime_MMGBSA_result_1
                    3D
 Schrodinger Suite 2021-3.
136135  0  0  1  0            999 V2000
  185.5790  211.4215  265.1213 C   0  0  0  0  0  0
  186.0110  211.4580  263.8571 N   0  0  0  0  0  0
  187.2236  210.8574  263.3070 C   0  0  1  0  0  0
  188.4734  211.7188  263.5476 C   0  0  0  0  0  0
  189.1217  212.1117  262.4447 N   0  0  0  0  0  0
  190.3845  212.8457  262.4198 C   0  0  1  0  0  0
  190.9963  212.7024  261.0204 C   0  0  0  0  0  0
  191.2142  211.4515  260.5909 N   0  0  0  0  0  0
  191.7271  211.1294  259.2597 C   0  0  1  0  0  0
  193.1962  211.5680  259.0877 C   0  0  0  0  0  0
  193.3958  212.6729  258.3656 N   0  0  0  0  0  0
  194.6632  213.0973  257.7888 C   0  0  1  0  0  0
  194.3374  213.8050  256.4683 C   0  0  0  0  0  0
  195.2872  213.7487  255.5338 N   0  0  0  0  0  0
  195.3434  214.5675  254.3349 C   0  0  1  0  0  0
  196.7216  215.2365  254.4038 C   0  0  0  0  0  0
  196.7400  216.5687  254.4669 N   0  0  0  0  0  0
  184.2721  212.1364  265.4221 C   0  0  0  0  0  0
  186.1693  210.8373  266.0234 O   0  0  0  0  0  0
  187.4512  209.3653  263.6461 C   0  0  0  0  0  0
  188.7408  208.6186  262.5988 S   0  0  0  0  0  0
  188.8399  211.9802  264.6924 O   0  0  0  0  0  0
  190.1741  214.3167  262.8362 C   0  0  0  0  0  0
  191.2027  213.7014  260.3327 O   0  0  0  0  0  0
  191.5033  209.6260  258.9524 C   0  0  0  0  0  0
  191.9752  209.1976  257.5441 C   0  0  0  0  0  0
  191.7305  207.7142  257.2203 C   0  0  0  0  0  0
  192.1181  207.4004  255.8305 N   0  0  0  0  0  0
  191.3190  207.1693  254.7690 C   0  0  0  0  0  0
  189.9798  207.1653  254.8538 N   0  0  0  0  0  0
  191.8791  206.9294  253.5767 N   0  3  0  0  0  0
  194.1010  210.8743  259.5532 O   0  0  0  0  0  0
  195.4531  213.9954  258.7787 C   0  0  0  0  0  0
  196.7035  214.6802  258.1671 C   0  0  0  0  0  0
  197.7042  215.2857  259.1639 C   0  0  0  0  0  0
  197.1096  216.3095  260.0416 N   0  0  0  0  0  0
  196.9169  216.2105  261.3701 C   0  0  0  0  0  0
  197.1733  215.0769  262.0379 N   0  0  0  0  0  0
  196.4839  217.2788  262.0502 N   0  3  0  0  0  0
  197.8889  217.4649  254.6016 C   0  0  1  0  0  0
  197.2968  218.8790  254.7258 C   0  0  0  0  0  0
  198.1485  219.8973  254.9104 N   0  0  0  0  0  0
  197.8147  221.2977  255.2470 C   0  0  1  0  0  0
  196.9591  222.1025  254.2278 C   0  0  0  0  0  0
  193.2740  214.4137  256.3446 O   0  0  0  0  0  0
  197.7215  214.5249  254.4627 O   0  0  0  0  0  0
  198.7493  217.1217  255.8392 C   0  0  0  0  0  0
  196.0706  219.0178  254.6739 O   0  0  0  0  0  0
  196.1250  221.4722  253.4184 N   0  0  0  0  0  0
  197.0843  223.3179  254.1466 O   0  0  0  0  0  0
  197.2313  221.3339  256.6838 C   0  0  0  0  0  0
  197.1867  222.7280  257.3497 C   0  0  0  0  0  0
  196.5531  222.7427  258.7542 C   0  0  0  0  0  0
  197.2418  221.8438  259.6975 N   0  0  0  0  0  0
  196.8330  221.4845  260.9290 C   0  0  0  0  0  0
  195.6874  221.9295  261.4661 N   0  0  0  0  0  0
  197.5937  220.6541  261.6511 N   0  3  0  0  0  0
  195.1317  213.6517  253.1056 C   0  0  0  0  0  0
  195.4859  214.2526  251.7291 C   0  0  0  0  0  0
  195.2580  213.2404  250.5896 C   0  0  0  0  0  0
  195.8117  213.7078  249.3053 N   0  0  0  0  0  0
  196.3527  212.9632  248.3176 C   0  0  0  0  0  0
  196.4760  211.6278  248.3991 N   0  0  0  0  0  0
  196.7816  213.5820  247.2096 N   0  3  0  0  0  0
  185.4854  211.9857  263.1699 H   0  0  0  0  0  0
  187.0061  210.8994  262.2499 H   0  0  0  0  0  0
  188.7547  211.8314  261.5398 H   0  0  0  0  0  0
  191.0764  212.3820  263.1262 H   0  0  0  0  0  0
  191.0246  210.6776  261.2101 H   0  0  0  0  0  0
  191.1230  211.6899  258.5423 H   0  0  0  0  0  0
  192.6015  213.2226  258.0577 H   0  0  0  0  0  0
  195.2591  212.2112  257.5566 H   0  0  0  0  0  0
  196.1559  213.2706  255.7347 H   0  0  0  0  0  0
  194.5705  215.3396  254.3451 H   0  0  0  0  0  0
  195.8714  217.0944  254.4479 H   0  0  0  0  0  0
  184.0310  212.8776  264.6612 H   0  0  0  0  0  0
  184.3393  212.6445  266.3836 H   0  0  0  0  0  0
  183.4619  211.4092  265.4738 H   0  0  0  0  0  0
  187.7203  209.2390  264.6944 H   0  0  0  0  0  0
  186.5394  208.8007  263.4782 H   0  0  0  0  0  0
  188.0798  208.7947  261.4447 H   0  0  0  0  0  0
  191.1117  214.8728  262.7901 H   0  0  0  0  0  0
  189.4633  214.8198  262.1798 H   0  0  0  0  0  0
  189.8040  214.3958  263.8583 H   0  0  0  0  0  0
  192.0263  209.0212  259.6960 H   0  0  0  0  0  0
  190.4423  209.3938  259.0601 H   0  0  0  0  0  0
  191.5786  209.8468  256.7611 H   0  0  0  0  0  0
  193.0572  209.3392  257.5266 H   0  0  0  0  0  0
  192.4173  207.1209  257.8255 H   0  0  0  0  0  0
  190.7311  207.3781  257.4992 H   0  0  0  0  0  0
  193.1158  207.3815  255.6696 H   0  0  0  0  0  0
  189.4244  207.0050  254.0194 H   0  0  0  0  0  0
  189.5107  207.2881  255.7402 H   0  0  0  0  0  0
  191.2888  206.7678  252.7651 H   0  0  0  0  0  0
  194.7862  214.7694  259.1630 H   0  0  0  0  0  0
  195.7433  213.3928  259.6407 H   0  0  0  0  0  0
  197.2418  213.8956  257.6350 H   0  0  0  0  0  0
  196.4531  215.4194  257.4053 H   0  0  0  0  0  0
  198.2755  214.5240  259.6923 H   0  0  0  0  0  0
  198.4542  215.8327  258.5935 H   0  0  0  0  0  0
  196.8527  217.1742  259.5872 H   0  0  0  0  0  0
  197.1792  215.0673  263.0516 H   0  0  0  0  0  0
  197.5118  214.2620  261.5484 H   0  0  0  0  0  0
  196.5029  217.2660  263.0639 H   0  0  0  0  0  0
  198.4906  217.4010  253.6935 H   0  0  0  0  0  0
  199.1422  219.7012  254.9800 H   0  0  0  0  0  0
  198.7796  221.8066  255.2741 H   0  0  0  0  0  0
  199.6545  217.7263  255.8641 H   0  0  0  0  0  0
  198.2057  217.3029  256.7655 H   0  0  0  0  0  0
  199.0882  216.0868  255.8405 H   0  0  0  0  0  0
  195.9519  220.4872  253.5973 H   0  0  0  0  0  0
  195.5708  221.9990  252.7660 H   0  0  0  0  0  0
  196.2250  220.9108  256.6741 H   0  0  0  0  0  0
  197.8318  220.6681  257.3025 H   0  0  0  0  0  0
  198.1608  223.2206  257.3495 H   0  0  0  0  0  0
  196.5501  223.3577  256.7274 H   0  0  0  0  0  0
  196.6845  223.7409  259.1740 H   0  0  0  0  0  0
  195.4776  222.5681  258.7078 H   0  0  0  0  0  0
  198.1291  221.4886  259.3724 H   0  0  0  0  0  0
  195.4320  221.6443  262.4061 H   0  0  0  0  0  0
  195.0805  222.5543  260.9568 H   0  0  0  0  0  0
  197.3134  220.4368  262.6052 H   0  0  0  0  0  0
  195.7225  212.7462  253.2401 H   0  0  0  0  0  0
  194.0936  213.3157  253.0964 H   0  0  0  0  0  0
  194.8036  215.0918  251.5836 H   0  0  0  0  0  0
  196.4944  214.6687  251.6862 H   0  0  0  0  0  0
  195.5650  212.2351  250.8725 H   0  0  0  0  0  0
  194.1859  213.1830  250.3986 H   0  0  0  0  0  0
  195.7740  214.7069  249.1650 H   0  0  0  0  0  0
  196.8952  211.0987  247.6496 H   0  0  0  0  0  0
  196.2706  211.1483  249.2696 H   0  0  0  0  0  0
  197.2282  213.0645  246.4673 H   0  0  0  0  0  0
  198.4747  220.3029  261.3072 H   0  0  0  0  0  0
  192.8819  206.9247  253.4557 H   0  0  0  0  0  0
  196.2449  218.1414  261.5829 H   0  0  0  0  0  0
  196.7292  214.5864  247.1305 H   0  0  0  0  0  0
  1  2  1  0  0  0
  1 18  1  0  0  0
  1 19  2  0  0  0
  2  3  1  0  0  0
  2 65  1  0  0  0
  3  4  1  0  0  0
  3 20  1  0  0  0
  3 66  1  0  0  0
  4  5  1  0  0  0
  4 22  2  0  0  0
  5  6  1  0  0  0
  5 67  1  0  0  0
  6  7  1  0  0  0
  6 23  1  0  0  0
  6 68  1  0  0  0
  7  8  1  0  0  0
  7 24  2  0  0  0
  8  9  1  0  0  0
  8 69  1  0  0  0
  9 10  1  0  0  0
  9 25  1  0  0  0
  9 70  1  0  0  0
 10 11  1  0  0  0
 10 32  2  0  0  0
 11 12  1  0  0  0
 11 71  1  0  0  0
 12 13  1  0  0  0
 12 33  1  0  0  0
 12 72  1  0  0  0
 13 14  1  0  0  0
 13 45  2  0  0  0
 14 15  1  0  0  0
 14 73  1  0  0  0
 15 16  1  0  0  0
 15 58  1  0  0  0
 15 74  1  0  0  0
 16 17  1  0  0  0
 16 46  2  0  0  0
 17 40  1  0  0  0
 17 75  1  0  0  0
 18 76  1  0  0  0
 18 77  1  0  0  0
 18 78  1  0  0  0
 20 21  1  0  0  0
 20 79  1  0  0  0
 20 80  1  0  0  0
 21 81  1  0  0  0
 23 82  1  0  0  0
 23 83  1  0  0  0
 23 84  1  0  0  0
 25 26  1  0  0  0
 25 85  1  0  0  0
 25 86  1  0  0  0
 26 27  1  0  0  0
 26 87  1  0  0  0
 26 88  1  0  0  0
 27 28  1  0  0  0
 27 89  1  0  0  0
 27 90  1  0  0  0
 28 29  1  0  0  0
 28 91  1  0  0  0
 29 30  1  0  0  0
 29 31  2  0  0  0
 30 92  1  0  0  0
 30 93  1  0  0  0
 31 94  1  0  0  0
 31134  1  0  0  0
 33 34  1  0  0  0
 33 95  1  0  0  0
 33 96  1  0  0  0
 34 35  1  0  0  0
 34 97  1  0  0  0
 34 98  1  0  0  0
 35 36  1  0  0  0
 35 99  1  0  0  0
 35100  1  0  0  0
 36 37  1  0  0  0
 36101  1  0  0  0
 37 38  1  0  0  0
 37 39  2  0  0  0
 38102  1  0  0  0
 38103  1  0  0  0
 39104  1  0  0  0
 39135  1  0  0  0
 40 41  1  0  0  0
 40 47  1  0  0  0
 40105  1  0  0  0
 41 42  1  0  0  0
 41 48  2  0  0  0
 42 43  1  0  0  0
 42106  1  0  0  0
 43 44  1  0  0  0
 43 51  1  0  0  0
 43107  1  0  0  0
 44 49  1  0  0  0
 44 50  2  0  0  0
 47108  1  0  0  0
 47109  1  0  0  0
 47110  1  0  0  0
 49111  1  0  0  0
 49112  1  0  0  0
 51 52  1  0  0  0
 51113  1  0  0  0
 51114  1  0  0  0
 52 53  1  0  0  0
 52115  1  0  0  0
 52116  1  0  0  0
 53 54  1  0  0  0
 53117  1  0  0  0
 53118  1  0  0  0
 54 55  1  0  0  0
 54119  1  0  0  0
 55 56  1  0  0  0
 55 57  2  0  0  0
 56120  1  0  0  0
 56121  1  0  0  0
 57122  1  0  0  0
 57133  1  0  0  0
 58 59  1  0  0  0
 58123  1  0  0  0
 58124  1  0  0  0
 59 60  1  0  0  0
 59125  1  0  0  0
 59126  1  0  0  0
 60 61  1  0  0  0
 60127  1  0  0  0
 60128  1  0  0  0
 61 62  1  0  0  0
 61129  1  0  0  0
 62 63  1  0  0  0
 62 64  2  0  0  0
 63130  1  0  0  0
 63131  1  0  0  0
 64132  1  0  0  0
 64136  1  0  0  0
M  CHG  4  31   1  39   1  57   1  64   1
M  END
> <s_m_entry_id>
47

> <s_m_entry_name>
STS005-ligand-20230714.1

> <s_m_Source_Path>
D:\xubinbin\STS005

> <s_m_Source_File>
prime_mmgbsa_all-20230714-out.maegz

> <i_m_Source_File_Index>
47

> <s_psp_Prime_MMGBSA_Input_Structure_Hash>
811efbd3ccdfdec8c934576315f47eca444bb99c68d35d8973cf2588

> <i_psp_number_heavy_atoms>
64

> <b_psp_distorted_structure>
1

> <i_psp_model_num>
0

> <r_psp_Prime_Coulomb>
-43121.4571596182

> <r_psp_Prime_Covalent>
7573.66917260336

> <r_psp_Prime_vdW>
-6866.13800165352

> <r_psp_Prime_Lipo>
-3885.82817857849

> <r_psp_Prime_Solv_GB>
-13139.2982804852

> <r_psp_Prime_Energy>
-60523.4583930239

> <s_psp_Prime_Energy_Force_Field>
S-OPLS

> <s_psp_Prime_Energy_Solvent_Model>
VSGB2.1

> <r_psp_Prime_Bond_Covalent>
954.515457543164

> <r_psp_Prime_Bond_SGB>
111526.056105573

> <r_psp_Prime_Angle_Covalent>
3210.16544514191

> <r_psp_Prime_Angle_SGB>
-44135.0890003092

> <r_psp_Prime_Torsion_Covalent>
3408.98826991828

> <r_psp_Prime_NB14_LJ>
7948.73242235133

> <r_psp_Prime_NB14_Lipo>
0

> <r_psp_Prime_NB14_Elec>
48415.4537619834

> <r_psp_Prime_NB14_SGB>
-41259.2282963049

> <r_psp_Prime_NBShort_LJ>
-14048.8837645203

> <r_psp_Prime_NBShort_Lipo>
-3885.82817857849

> <r_psp_Prime_NBShort_Elec>
-95874.7434156234

> <r_psp_Prime_NBShort_SGB>
45187.9404585236

> <r_psp_Prime_NBLong_LJ>
-765.98665948451

> <r_psp_Prime_NBLong_Lipo>
0

> <r_psp_Prime_NBLong_Elec>
4337.83249402178

> <r_psp_Prime_NBLong_SGB>
-4153.81404559936

> <r_psp_Prime_Self_SGB>
-80305.1635023688

> <r_psp_Prime_Hbond>
-776.337855146043

> <r_psp_Prime_Packing>
-136.00913152471

> <r_psp_Prime_SelfCont>
-172.058958621051

> <Clean Energy>
128.427

> <i_lp_mmshare_version>
54117

> <s_epik_input>
W0NIM11DKD1PKVtOSF1bQ0BIXShbQ0gyXVtTSF0pQyg9TylbTkhdW0NASF0oW0NIM10pQyg9TylbTkhdW0NASF0oW0NIMl1bQ0gyXVtDSDJdW05IXS9DKFtOSDJdKT1OL1tIXSlDKD1PKVtOSF1bQ0BIXShbQ0gyXVtDSDJdW0NIMl1bTkhdL0MoW05IMl0pPU4vW0hdKUMoPU8pW05IXVtDQEhdKFtDSDJdW0NIMl1bQ0gyXVtOSF0vQyhbTkgyXSk9Ti9bSF0pQyg9TylbTkhdW0NASF0oW0NIM10pQyg9TylbTkhdW0NAQEhdKEMoPU8pW05IMl0pW0NIMl1bQ0gyXVtDSDJdW05IXS9DKFtOSDJdKT1OL1tIXQ==

> <s_epik_cmdline>
J2VwaWtfcHl0aG9uJywgJy1waCcsICc3LjAnLCAnLXRuJywgJzgnLCAnLW1hJywgJzUwMCcsICctaW1hZScsICc8aW5maWxlLm1hZT4nLCAnLW9tYWUnLCAnPG91dGZpbGUubWFlPic=

> <r_epik_Ionization_Penalty>
  0.0086

> <r_epik_Ionization_Penalty_Charging>
  0.0000

> <r_epik_Ionization_Penalty_Neutral>
  0.0086

> <r_epik_State_Penalty>
  0.0065

> <r_epik_Charging_Adjusted_Penalty>
0.00652040924020187

> <i_epik_Tot_Q>
4

> <i_epik_Tot_abs_Q>
4

> <s_epik_Chemistry_Notes>
This compound has an imine and may undergo hydrolysis.

> <i_f3d_flags>
0

> <s_lp_Force_Field>
S-OPLS

> <r_lp_Energy>
24.906184

> <b_lp_Chiralities_Consistent>
1

> <s_lp_Variant>
001-1

> <s_i_glide_gridfile>
glide-grid_D-site

> <i_i_glide_lignum>
1

> <i_i_glide_rotatable_bonds>
43

> <r_i_docking_score>
-6.52538143757043

> <r_i_glide_ligand_efficiency>
-0.101959084962038

> <r_i_glide_ligand_efficiency_sa>
-0.407836339282771

> <r_i_glide_ligand_efficiency_ln>
-1.26488259806052

> <r_glide_XP_GScore>
-6.53188143757043

> <r_i_glide_gscore>
-6.53188143757043

> <r_i_glide_evdw>
-35.0855712890625

> <r_i_glide_ecoul>
-39.0469245910645

> <r_i_glide_energy>
-74.132495880127

> <r_i_glide_einternal>
22.0792942047119

> <r_i_glide_emodel>
-87.3882446289062

> <r_glide_XP_HBond>
-2.93913809109326

> <i_i_glide_confnum>
1

> <i_i_glide_posenum>
12

> <r_i_glide_eff_state_penalty>
0.0065

> <i_glide_XP_PoseRank>
1

> <s_psp_MMGBSA_moved_residues>


> <r_psp_MMGBSA_dG_Bind>
-55.0986566558859

> <r_psp_MMGBSA_dG_Bind_Coulomb>
-588.477024545267

> <r_psp_MMGBSA_dG_Bind_Covalent>
6.82457411368887

> <r_psp_MMGBSA_dG_Bind_Hbond>
-8.5151193711456

> <r_psp_MMGBSA_dG_Bind_Lipo>
-3.42570134488005

> <r_psp_MMGBSA_dG_Bind_Packing>
0

> <r_psp_MMGBSA_dG_Bind_SelfCont>
0

> <r_psp_MMGBSA_dG_Bind_Solv_GB>
589.528381346176

> <r_psp_MMGBSA_dG_Bind_vdW>
-51.0337668544626

> <r_psp_Lig_Strain_Energy>
20.5347925683081

> <r_psp_Lig_Strain_Coulomb>
19.6902598993955

> <r_psp_Lig_Strain_Covalent>
6.82457411368838

> <r_psp_Lig_Strain_Hbond>
0

> <r_psp_Lig_Strain_Lipo>
2.06841596233763

> <r_psp_Lig_Strain_Packing>
0

> <r_psp_Lig_Strain_SelfCont>
0

> <r_psp_Lig_Strain_Solv_GB>
-12.9977936413392

> <r_psp_Lig_Strain_vdW>
4.94933623422587

> <r_psp_Ligand_Energy>
-261.486868210077

> <r_psp_Ligand_Coulomb>
-62.6884958279677

> <r_psp_Ligand_Covalent>
31.092422491893

> <r_psp_Ligand_Hbond>
0

> <r_psp_Ligand_Lipo>
-5.35371517180751

> <r_psp_Ligand_Packing>
0

> <r_psp_Ligand_SelfCont>
0

> <r_psp_Ligand_Solv_GB>
-232.482444867918

> <r_psp_Ligand_vdW>
7.94536516572273

> <r_psp_Complex_Energy>
-60523.4583930239

> <r_psp_Complex_Coulomb>
-43121.4571596182

> <r_psp_Complex_Covalent>
7573.66917260336

> <r_psp_Complex_Hbond>
-776.337855146043

> <r_psp_Complex_Lipo>
-3885.82817857849

> <r_psp_Complex_Packing>
-136.00913152471

> <r_psp_Complex_SelfCont>
-172.058958621051

> <r_psp_Complex_Solv_GB>
-13139.2982804852

> <r_psp_Complex_vdW>
-6866.13800165352

> <r_psp_Receptor_Energy>
-60206.872868158

> <r_psp_Receptor_Coulomb>
-42470.291639245

> <r_psp_Receptor_Covalent>
7535.75217599777

> <r_psp_Receptor_Hbond>
-767.822735774897

> <r_psp_Receptor_Lipo>
-3877.04876206181

> <r_psp_Receptor_Packing>
-136.00913152471

> <r_psp_Receptor_SelfCont>
-172.058958621051

> <r_psp_Receptor_Solv_GB>
-13496.3442169635

> <r_psp_Receptor_vdW>
-6823.04959996478

> <r_psp_MMGBSA_dG_Bind(NS)>
-75.6334492241949

> <r_psp_MMGBSA_dG_Bind(NS)_Coulomb>
-608.167284444666

> <r_psp_MMGBSA_dG_Bind(NS)_Covalent>
0

> <r_psp_MMGBSA_dG_Bind(NS)_Hbond>
-8.5151193711456

> <r_psp_MMGBSA_dG_Bind(NS)_Lipo>
-5.49411730721749

> <r_psp_MMGBSA_dG_Bind(NS)_Packing>
0

> <r_psp_MMGBSA_dG_Bind(NS)_SelfCont>
0

> <r_psp_MMGBSA_dG_Bind(NS)_Solv_GB>
602.526174987515

> <r_psp_MMGBSA_dG_Bind(NS)_vdW>
-55.983103088688

> <r_psp_Rec_Strain_Energy>
0

> <r_psp_Rec_Strain_Coulomb>
0

> <r_psp_Rec_Strain_Covalent>
0

> <r_psp_Rec_Strain_Hbond>
0

> <r_psp_Rec_Strain_Lipo>
0

> <r_psp_Rec_Strain_Packing>
0

> <r_psp_Rec_Strain_SelfCont>
0

> <r_psp_Rec_Strain_Solv_GB>
0

> <r_psp_Rec_Strain_vdW>
0

> <r_psp_Prime_MMGBSA_ligand_efficiency>
-0.860916510248217

> <r_psp_Prime_MMGBSA_ligand_efficiency_sa>
-1.29137476537232

> <r_psp_Prime_MMGBSA_ligand_efficiency_ln>
-10.680346068243

> <s_m_subgroup_title>
prime_mmgbsa_all-20230714-out

> <s_m_subgroupid>
prime_mmgbsa_all-20230714-out

> <b_m_subgroup_collapsed>
0

$$$$
