STS005_prime_MMGBSA_result_37
                    3D
 Schrodinger Suite 2021-3.
143143  0  0  1  0            999 V2000
  199.3597  217.3951  252.3814 C   0  0  0  0  0  0
  198.9258  216.2208  251.9031 N   0  0  0  0  0  0
  198.0865  216.0508  250.7109 C   0  0  1  0  0  0
  196.6551  216.5722  250.9396 C   0  0  0  0  0  0
  196.0236  216.0229  251.9833 N   0  0  0  0  0  0
  194.6117  216.1996  252.3040 C   0  0  1  0  0  0
  194.0660  214.8810  252.8738 C   0  0  0  0  0  0
  194.5075  213.7551  252.2880 N   0  0  0  0  0  0
  194.2965  212.3839  252.7700 C   0  0  1  0  0  0
  195.0727  212.1156  254.0818 C   0  0  0  0  0  0
  194.7405  211.0010  254.7442 N   0  0  0  0  0  0
  195.2472  210.5669  256.0472 C   0  0  1  0  0  0
  194.8430  211.5298  257.1788 C   0  0  0  0  0  0
  195.4919  211.3661  258.3350 N   0  0  0  0  0  0
  195.2234  212.1281  259.5472 C   0  0  1  0  0  0
  194.9101  211.1650  260.7002 C   0  0  0  0  0  0
  194.1223  211.6571  261.6689 N   0  0  0  0  0  0
  200.2197  217.3633  253.6365 C   0  0  0  0  0  0
  199.1146  218.4667  251.8356 O   0  0  0  0  0  0
  198.7549  216.5514  249.4058 C   0  0  0  0  0  0
  198.0327  215.7833  247.9243 S   0  0  0  0  0  0
  196.1543  217.4165  250.1970 O   0  0  0  0  0  0
  194.4403  217.3916  253.2635 C   0  0  0  0  0  0
  193.2931  214.9059  253.8287 O   0  0  0  0  0  0
  192.7910  211.9672  252.8054 C   0  0  0  0  0  0
  192.2878  211.6049  251.4163 C   0  0  0  0  0  0
  195.9950  212.8621  254.4172 O   0  0  0  0  0  0
  194.7006  209.1433  256.3203 C   0  0  0  0  0  0
  193.3483  210.9498  262.7018 C   0  0  1  0  0  0
  191.9230  210.7331  262.1764 C   0  0  0  0  0  0
  190.9232  210.8335  263.0633 N   0  0  0  0  0  0
  189.5011  210.7902  262.6963 C   0  0  1  0  0  0
  188.6456  209.9925  263.7011 C   0  0  0  0  0  0
  193.9266  212.3347  257.0125 O   0  0  0  0  0  0
  195.4086  210.0402  260.6797 O   0  0  0  0  0  0
  193.9747  209.6280  263.1804 C   0  0  0  0  0  0
  191.7541  210.5335  260.9738 O   0  0  0  0  0  0
  187.5123  209.4697  263.2496 N   0  0  0  0  0  0
  188.9699  209.8982  264.8801 O   0  0  0  0  0  0
  188.9389  212.2296  262.5268 C   0  0  0  0  0  0
  189.6670  213.0926  261.4703 C   0  0  0  0  0  0
  196.4568  213.0017  259.8213 C   0  0  0  0  0  0
  196.2412  214.0579  260.9086 C   0  0  0  0  0  0
  197.4582  214.9737  261.0354 C   0  0  0  0  0  0
  197.1596  216.1613  261.8416 N   0  0  0  0  0  0
  196.6199  217.3215  261.4299 C   0  0  0  0  0  0
  196.2445  217.5296  260.1584 N   0  0  0  0  0  0
  196.4624  218.2950  262.3304 N   0  3  0  0  0  0
  189.0010  214.4484  261.1673 C   0  0  0  0  0  0
  187.7220  214.3258  260.4363 N   0  0  0  0  0  0
  187.1342  215.2622  259.6617 C   0  0  0  0  0  0
  187.7044  216.4524  259.4150 N   0  3  0  0  0  0
  185.9350  215.0062  259.1265 N   0  0  0  0  0  0
  192.3667  210.2824  250.9764 C   0  0  0  0  0  0
  191.9225  209.9198  249.6987 C   0  0  0  0  0  0
  191.3630  210.9041  248.8580 C   0  0  0  0  0  0
  191.2897  212.2283  249.3068 C   0  0  0  0  0  0
  191.7495  212.5782  250.5755 C   0  0  0  0  0  0
  191.9765  208.5426  249.2918 N   0  0  0  0  0  0
  192.9536  207.6451  249.4690 C   0  0  0  0  0  0
  192.7666  206.4110  249.0568 N   0  0  0  0  0  0
  194.1298  207.8959  250.0062 N   0  3  0  0  0  0
  193.1568  209.0458  256.3145 C   0  0  0  0  0  0
  192.6273  207.6224  256.5410 C   0  0  0  0  0  0
  191.1954  207.5269  256.2075 N   0  0  0  0  0  0
  190.6780  207.3158  254.9804 C   0  0  0  0  0  0
  191.4495  207.1728  253.8905 N   0  0  0  0  0  0
  189.3513  207.2361  254.8305 N   0  3  0  0  0  0
  190.8348  210.5792  247.4625 C   0  0  0  0  0  0
  199.1382  215.3721  252.4030 H   0  0  0  0  0  0
  197.9516  214.9794  250.6136 H   0  0  0  0  0  0
  196.5143  215.3733  252.5809 H   0  0  0  0  0  0
  194.0497  216.4031  251.3901 H   0  0  0  0  0  0
  195.1233  213.8437  251.4957 H   0  0  0  0  0  0
  194.8045  211.7388  252.0507 H   0  0  0  0  0  0
  193.9869  210.4498  254.3750 H   0  0  0  0  0  0
  196.3381  210.5416  255.9952 H   0  0  0  0  0  0
  196.1536  210.6140  258.4412 H   0  0  0  0  0  0
  194.3529  212.7701  259.3937 H   0  0  0  0  0  0
  193.7894  212.5949  261.5121 H   0  0  0  0  0  0
  199.7542  217.9597  254.4221 H   0  0  0  0  0  0
  201.1950  217.7989  253.4226 H   0  0  0  0  0  0
  200.3739  216.3541  254.0190 H   0  0  0  0  0  0
  198.7029  217.6371  249.3287 H   0  0  0  0  0  0
  199.8073  216.2785  249.4008 H   0  0  0  0  0  0
  198.6224  214.5892  248.1103 H   0  0  0  0  0  0
  193.3868  217.5637  253.4873 H   0  0  0  0  0  0
  194.9516  217.2179  254.2110 H   0  0  0  0  0  0
  194.8361  218.3097  252.8288 H   0  0  0  0  0  0
  192.5831  211.1063  253.4390 H   0  0  0  0  0  0
  192.1550  212.7421  253.2358 H   0  0  0  0  0  0
  195.1064  208.4657  255.5669 H   0  0  0  0  0  0
  195.0836  208.7762  257.2748 H   0  0  0  0  0  0
  193.2970  211.6270  263.5555 H   0  0  0  0  0  0
  191.1020  210.8993  264.0547 H   0  0  0  0  0  0
  189.4246  210.2509  261.7537 H   0  0  0  0  0  0
  193.4009  209.2170  264.0064 H   0  0  0  0  0  0
  193.9652  208.8708  262.3962 H   0  0  0  0  0  0
  195.0029  209.7617  263.5143 H   0  0  0  0  0  0
  187.2581  209.5672  262.2749 H   0  0  0  0  0  0
  186.9055  208.9865  263.8940 H   0  0  0  0  0  0
  187.8824  212.1541  262.2626 H   0  0  0  0  0  0
  188.9605  212.7407  263.4905 H   0  0  0  0  0  0
  190.7163  213.2535  261.7150 H   0  0  0  0  0  0
  189.6795  212.5067  260.5492 H   0  0  0  0  0  0
  197.3176  212.3784  260.0696 H   0  0  0  0  0  0
  196.7170  213.5216  258.8972 H   0  0  0  0  0  0
  195.3156  214.6202  260.7729 H   0  0  0  0  0  0
  196.1448  213.5207  261.8543 H   0  0  0  0  0  0
  198.1912  214.4385  261.6399 H   0  0  0  0  0  0
  197.9568  215.1919  260.0896 H   0  0  0  0  0  0
  197.4121  216.0855  262.8251 H   0  0  0  0  0  0
  195.8422  218.4101  259.8724 H   0  0  0  0  0  0
  196.3603  216.7995  259.4708 H   0  0  0  0  0  0
  196.0561  219.1902  262.0953 H   0  0  0  0  0  0
  188.7220  214.9112  262.1145 H   0  0  0  0  0  0
  189.7120  215.1288  260.6987 H   0  0  0  0  0  0
  187.2160  213.4566  260.5808 H   0  0  0  0  0  0
  187.2438  217.1388  258.8357 H   0  0  0  0  0  0
  185.4355  215.6971  258.5853 H   0  0  0  0  0  0
  185.4331  214.1542  259.3730 H   0  0  0  0  0  0
  192.7551  209.5327  251.6503 H   0  0  0  0  0  0
  190.8685  212.9962  248.6747 H   0  0  0  0  0  0
  191.6813  213.6048  250.9058 H   0  0  0  0  0  0
  191.2220  208.2143  248.7074 H   0  0  0  0  0  0
  193.4565  205.7076  249.2679 H   0  0  0  0  0  0
  191.8031  206.1199  248.9246 H   0  0  0  0  0  0
  194.6794  207.1575  250.4196 H   0  0  0  0  0  0
  192.8105  209.6440  257.1605 H   0  0  0  0  0  0
  192.6990  209.5029  255.4369 H   0  0  0  0  0  0
  193.2405  206.8496  256.0759 H   0  0  0  0  0  0
  192.6534  207.4184  257.6129 H   0  0  0  0  0  0
  190.5566  207.6579  256.9805 H   0  0  0  0  0  0
  191.0130  206.9989  252.9883 H   0  0  0  0  0  0
  192.4556  207.2117  253.9550 H   0  0  0  0  0  0
  188.9656  207.0664  253.9064 H   0  0  0  0  0  0
  190.4236  211.4518  246.9545 H   0  0  0  0  0  0
  191.6339  210.1718  246.8425 H   0  0  0  0  0  0
  190.0507  209.8233  247.5236 H   0  0  0  0  0  0
  188.6064  216.6751  259.8091 H   0  0  0  0  0  0
  196.7655  218.1677  263.2896 H   0  0  0  0  0  0
  188.7298  207.2351  255.6276 H   0  0  0  0  0  0
  194.4776  208.8442  250.0498 H   0  0  0  0  0  0
  1  2  1  0  0  0
  1 18  1  0  0  0
  1 19  2  0  0  0
  2  3  1  0  0  0
  2 70  1  0  0  0
  3  4  1  0  0  0
  3 20  1  0  0  0
  3 71  1  0  0  0
  4  5  1  0  0  0
  4 22  2  0  0  0
  5  6  1  0  0  0
  5 72  1  0  0  0
  6  7  1  0  0  0
  6 23  1  0  0  0
  6 73  1  0  0  0
  7  8  1  0  0  0
  7 24  2  0  0  0
  8  9  1  0  0  0
  8 74  1  0  0  0
  9 10  1  0  0  0
  9 25  1  0  0  0
  9 75  1  0  0  0
 10 11  1  0  0  0
 10 27  2  0  0  0
 11 12  1  0  0  0
 11 76  1  0  0  0
 12 13  1  0  0  0
 12 28  1  0  0  0
 12 77  1  0  0  0
 13 14  1  0  0  0
 13 34  2  0  0  0
 14 15  1  0  0  0
 14 78  1  0  0  0
 15 16  1  0  0  0
 15 42  1  0  0  0
 15 79  1  0  0  0
 16 17  1  0  0  0
 16 35  2  0  0  0
 17 29  1  0  0  0
 17 80  1  0  0  0
 18 81  1  0  0  0
 18 82  1  0  0  0
 18 83  1  0  0  0
 20 21  1  0  0  0
 20 84  1  0  0  0
 20 85  1  0  0  0
 21 86  1  0  0  0
 23 87  1  0  0  0
 23 88  1  0  0  0
 23 89  1  0  0  0
 25 26  1  0  0  0
 25 90  1  0  0  0
 25 91  1  0  0  0
 26 54  2  0  0  0
 26 58  1  0  0  0
 28 63  1  0  0  0
 28 92  1  0  0  0
 28 93  1  0  0  0
 29 30  1  0  0  0
 29 36  1  0  0  0
 29 94  1  0  0  0
 30 31  1  0  0  0
 30 37  2  0  0  0
 31 32  1  0  0  0
 31 95  1  0  0  0
 32 33  1  0  0  0
 32 40  1  0  0  0
 32 96  1  0  0  0
 33 38  1  0  0  0
 33 39  2  0  0  0
 36 97  1  0  0  0
 36 98  1  0  0  0
 36 99  1  0  0  0
 38100  1  0  0  0
 38101  1  0  0  0
 40 41  1  0  0  0
 40102  1  0  0  0
 40103  1  0  0  0
 41 49  1  0  0  0
 41104  1  0  0  0
 41105  1  0  0  0
 42 43  1  0  0  0
 42106  1  0  0  0
 42107  1  0  0  0
 43 44  1  0  0  0
 43108  1  0  0  0
 43109  1  0  0  0
 44 45  1  0  0  0
 44110  1  0  0  0
 44111  1  0  0  0
 45 46  1  0  0  0
 45112  1  0  0  0
 46 47  1  0  0  0
 46 48  2  0  0  0
 47113  1  0  0  0
 47114  1  0  0  0
 48115  1  0  0  0
 48141  1  0  0  0
 49 50  1  0  0  0
 49116  1  0  0  0
 49117  1  0  0  0
 50 51  1  0  0  0
 50118  1  0  0  0
 51 52  2  0  0  0
 51 53  1  0  0  0
 52119  1  0  0  0
 52140  1  0  0  0
 53120  1  0  0  0
 53121  1  0  0  0
 54 55  1  0  0  0
 54122  1  0  0  0
 55 56  2  0  0  0
 55 59  1  0  0  0
 56 69  1  0  0  0
 56 57  1  0  0  0
 57 58  2  0  0  0
 57123  1  0  0  0
 58124  1  0  0  0
 59 60  1  0  0  0
 59125  1  0  0  0
 60 61  1  0  0  0
 60 62  2  0  0  0
 61126  1  0  0  0
 61127  1  0  0  0
 62128  1  0  0  0
 62143  1  0  0  0
 63 64  1  0  0  0
 63129  1  0  0  0
 63130  1  0  0  0
 64 65  1  0  0  0
 64131  1  0  0  0
 64132  1  0  0  0
 65 66  1  0  0  0
 65133  1  0  0  0
 66 67  1  0  0  0
 66 68  2  0  0  0
 67134  1  0  0  0
 67135  1  0  0  0
 68136  1  0  0  0
 68142  1  0  0  0
 69137  1  0  0  0
 69138  1  0  0  0
 69139  1  0  0  0
M  CHG  4  48   1  52   1  62   1  68   1
M  END
> <s_m_entry_id>
6

> <s_m_entry_name>
STS005-ligand-20230714.36

> <s_m_Source_Path>
D:\xubinbin\STS005

> <s_m_Source_File>
prime_mmgbsa_all-20230714-out.maegz

> <i_m_Source_File_Index>
6

> <s_psp_Prime_MMGBSA_Input_Structure_Hash>
f7b3e01dd8a3ee5eff4568c38b10433dbf12ba6f9fee7ef5f0f7475d

> <i_psp_number_heavy_atoms>
69

> <b_psp_distorted_structure>
1

> <i_psp_model_num>
0

> <r_psp_Prime_Coulomb>
-43229.7780740817

> <r_psp_Prime_Covalent>
7570.21401860916

> <r_psp_Prime_vdW>
-6862.00228590117

> <r_psp_Prime_Lipo>
-3889.78969741899

> <r_psp_Prime_Solv_GB>
-13051.3029197125

> <r_psp_Prime_Energy>
-60550.8278887342

> <s_psp_Prime_Energy_Force_Field>
S-OPLS

> <s_psp_Prime_Energy_Solvent_Model>
VSGB2.1

> <r_psp_Prime_Bond_Covalent>
956.126889823399

> <r_psp_Prime_Bond_SGB>
111445.806611838

> <r_psp_Prime_Angle_Covalent>
3208.93332312725

> <r_psp_Prime_Angle_SGB>
-44091.3555913489

> <r_psp_Prime_Torsion_Covalent>
3405.1538056585

> <r_psp_Prime_NB14_LJ>
7963.00992979075

> <r_psp_Prime_NB14_Lipo>
0

> <r_psp_Prime_NB14_Elec>
48382.8872396323

> <r_psp_Prime_NB14_SGB>
-41246.4751628545

> <r_psp_Prime_NBShort_LJ>
-14059.7711413354

> <r_psp_Prime_NBShort_Lipo>
-3889.78969741899

> <r_psp_Prime_NBShort_Elec>
-95984.4836981659

> <r_psp_Prime_NBShort_SGB>
45278.0943574132

> <r_psp_Prime_NBLong_LJ>
-765.241074356497

> <r_psp_Prime_NBLong_Lipo>
0

> <r_psp_Prime_NBLong_Elec>
4371.81838445191

> <r_psp_Prime_NBLong_SGB>
-4185.63993716677

> <r_psp_Prime_Self_SGB>
-80251.733197593

> <r_psp_Prime_Hbond>
-779.090936319475

> <r_psp_Prime_Packing>
-137.019035288443

> <r_psp_Prime_SelfCont>
-172.058958621051

> <i_lp_mmshare_version>
54117

> <s_epik_input>
W0NIM11DKD1PKVtOSF1bQ0BIXShbQ0gyXVtTSF0pQyg9TylbTkhdW0NASF0oW0NIM10pQyg9TylbTkhdW0NASF0oW0NIMl1jMVtjSF1jKGMoW0NIM10pW2NIXVtjSF0xKVtOSF0vQyhbTkgyXSk9Ti9bSF0pQyg9TylbTkhdW0NASF0oW0NIMl1bQ0gyXVtDSDJdW05IXS9DKFtOSDJdKT1OL1tIXSlDKD1PKVtOSF1bQ0BIXShbQ0gyXVtDSDJdW0NIMl1bTkhdL0MoW05IMl0pPU4vW0hdKUMoPU8pW05IXVtDQEhdKFtDSDNdKUMoPU8pW05IXVtDQEBIXShDKD1PKVtOSDJdKVtDSDJdW0NIMl1bQ0gyXVtOSF0vQyg9Ti9bSF0pW05IMl0=

> <s_epik_cmdline>
J2VwaWtfcHl0aG9uJywgJy1waCcsICc3LjAnLCAnLXRuJywgJzgnLCAnLW1hJywgJzUwMCcsICctaW1hZScsICc8aW5maWxlLm1hZT4nLCAnLW9tYWUnLCAnPG91dGZpbGUubWFlPic=

> <r_epik_Ionization_Penalty>
  0.0087

> <r_epik_Ionization_Penalty_Charging>
  0.0000

> <r_epik_Ionization_Penalty_Neutral>
  0.0086

> <r_epik_State_Penalty>
  0.0065

> <r_epik_Charging_Adjusted_Penalty>
0.00655265177119706

> <i_epik_Tot_Q>
4

> <i_epik_Tot_abs_Q>
4

> <s_epik_Chemistry_Notes>
This compound has an imine and may undergo hydrolysis.

> <i_f3d_flags>
0

> <s_lp_Force_Field>
S-OPLS

> <r_lp_Energy>
41.444077

> <b_lp_Chiralities_Consistent>
1

> <s_lp_Variant>
065-1

> <s_i_glide_gridfile>
glide-grid_D-site

> <i_i_glide_lignum>
70

> <i_i_glide_rotatable_bonds>
42

> <r_i_docking_score>
-8.6920863876844

> <r_i_glide_ligand_efficiency>
-0.12597226648818

> <r_i_glide_ligand_efficiency_sa>
-0.516683555586072

> <r_i_glide_ligand_efficiency_ln>
-1.66066288105714

> <r_glide_XP_GScore>
-8.6985863876844

> <r_i_glide_gscore>
-8.6985863876844

> <r_i_glide_evdw>
-41.8680725097656

> <r_i_glide_ecoul>
-52.9132995605469

> <r_i_glide_energy>
-94.7813720703125

> <r_i_glide_einternal>
27.2250499725342

> <r_i_glide_emodel>
-128.765930175781

> <r_glide_XP_HBond>
-3.18073571761246

> <i_i_glide_confnum>
1

> <i_i_glide_posenum>
1

> <r_i_glide_eff_state_penalty>
0.0065

> <i_glide_XP_PoseRank>
1

> <s_psp_MMGBSA_moved_residues>


> <r_psp_MMGBSA_dG_Bind>
-63.534005572561

> <r_psp_MMGBSA_dG_Bind_Coulomb>
-675.012308551566

> <r_psp_MMGBSA_dG_Bind_Covalent>
3.87828435089705

> <r_psp_MMGBSA_dG_Bind_Hbond>
-11.2682005445773

> <r_psp_MMGBSA_dG_Bind_Lipo>
-7.17449228168016

> <r_psp_MMGBSA_dG_Bind_Packing>
-1.00990376373269

> <r_psp_MMGBSA_dG_Bind_SelfCont>
0

> <r_psp_MMGBSA_dG_Bind_Solv_GB>
684.705069899175

> <r_psp_MMGBSA_dG_Bind_vdW>
-57.6524546810697

> <r_psp_Lig_Strain_Energy>
18.5301141313186

> <r_psp_Lig_Strain_Coulomb>
17.2051013830455

> <r_psp_Lig_Strain_Covalent>
3.87828435089297

> <r_psp_Lig_Strain_Hbond>
0

> <r_psp_Lig_Strain_Lipo>
1.36509404088501

> <r_psp_Lig_Strain_Packing>
0

> <r_psp_Lig_Strain_SelfCont>
0

> <r_psp_Lig_Strain_Solv_GB>
-10.3407950371541

> <r_psp_Lig_Strain_vdW>
6.42242939364937

> <r_psp_Ligand_Energy>
-280.421015003661

> <r_psp_Ligand_Coulomb>
-84.4741262851429

> <r_psp_Ligand_Covalent>
30.5835582604857

> <r_psp_Ligand_Hbond>
0

> <r_psp_Ligand_Lipo>
-5.56644307550724

> <r_psp_Ligand_Packing>
0

> <r_psp_Ligand_SelfCont>
0

> <r_psp_Ligand_Solv_GB>
-239.66377264818

> <r_psp_Ligand_vdW>
18.6997687446828

> <r_psp_Complex_Energy>
-60550.8278887342

> <r_psp_Complex_Coulomb>
-43229.7780740817

> <r_psp_Complex_Covalent>
7570.21401860916

> <r_psp_Complex_Hbond>
-779.090936319475

> <r_psp_Complex_Lipo>
-3889.78969741899

> <r_psp_Complex_Packing>
-137.019035288443

> <r_psp_Complex_SelfCont>
-172.058958621051

> <r_psp_Complex_Solv_GB>
-13051.3029197125

> <r_psp_Complex_vdW>
-6862.00228590117

> <r_psp_Receptor_Energy>
-60206.872868158

> <r_psp_Receptor_Coulomb>
-42470.291639245

> <r_psp_Receptor_Covalent>
7535.75217599777

> <r_psp_Receptor_Hbond>
-767.822735774897

> <r_psp_Receptor_Lipo>
-3877.04876206181

> <r_psp_Receptor_Packing>
-136.00913152471

> <r_psp_Receptor_SelfCont>
-172.058958621051

> <r_psp_Receptor_Solv_GB>
-13496.3442169635

> <r_psp_Receptor_vdW>
-6823.04959996478

> <r_psp_MMGBSA_dG_Bind(NS)>
-82.0641197038785

> <r_psp_MMGBSA_dG_Bind(NS)_Coulomb>
-692.217409934616

> <r_psp_MMGBSA_dG_Bind(NS)_Covalent>
4.54747350886464e-12

> <r_psp_MMGBSA_dG_Bind(NS)_Hbond>
-11.2682005445773

> <r_psp_MMGBSA_dG_Bind(NS)_Lipo>
-8.53958632256536

> <r_psp_MMGBSA_dG_Bind(NS)_Packing>
-1.00990376373269

> <r_psp_MMGBSA_dG_Bind(NS)_SelfCont>
0

> <r_psp_MMGBSA_dG_Bind(NS)_Solv_GB>
695.045864936328

> <r_psp_MMGBSA_dG_Bind(NS)_vdW>
-64.0748840747192

> <r_psp_Rec_Strain_Energy>
0

> <r_psp_Rec_Strain_Coulomb>
0

> <r_psp_Rec_Strain_Covalent>
0

> <r_psp_Rec_Strain_Hbond>
0

> <r_psp_Rec_Strain_Lipo>
0

> <r_psp_Rec_Strain_Packing>
0

> <r_psp_Rec_Strain_SelfCont>
0

> <r_psp_Rec_Strain_Solv_GB>
0

> <r_psp_Rec_Strain_vdW>
0

> <r_psp_Prime_MMGBSA_ligand_efficiency>
-0.920782689457406

> <r_psp_Prime_MMGBSA_ligand_efficiency_sa>
-1.38117403418611

> <r_psp_Prime_MMGBSA_ligand_efficiency_ln>
-12.1384625086932

> <Name>
65

> <s_m_subgroup_title>
prime_mmgbsa_all-20230714-out

> <s_m_subgroupid>
prime_mmgbsa_all-20230714-out

> <b_m_subgroup_collapsed>
0

$$$$
