STS005_prime_MMGBSA_result_58
                    3D
 Schrodinger Suite 2021-3.
146146  0  0  1  0            999 V2000
  188.8482  207.9675  263.6393 C   0  0  0  0  0  0
  189.6073  208.4190  262.6394 N   0  0  0  0  0  0
  191.0435  208.6789  262.6509 C   0  0  1  0  0  0
  191.3973  208.9841  261.1812 C   0  0  0  0  0  0
  192.6857  209.0809  260.8423 N   0  0  0  0  0  0
  193.1207  209.5744  259.5428 C   0  0  1  0  0  0
  194.4270  210.3501  259.7097 C   0  0  0  0  0  0
  194.5458  211.4025  258.9088 N   0  0  0  0  0  0
  195.6180  212.3772  258.8103 C   0  0  1  0  0  0
  195.1310  213.2835  257.6656 C   0  0  0  0  0  0
  196.0395  213.8042  256.8389 N   0  0  0  0  0  0
  195.6741  214.6614  255.7167 C   0  0  1  0  0  0
  196.9204  215.4106  255.2273 C   0  0  0  0  0  0
  196.8162  216.7425  255.2452 N   0  0  0  0  0  0
  197.8737  217.7138  254.9744 C   0  0  1  0  0  0
  198.1151  217.8824  253.4590 C   0  0  0  0  0  0
  198.5097  216.7785  252.8052 N   0  0  0  0  0  0
  187.3761  207.7669  263.3362 C   0  0  0  0  0  0
  189.2783  207.7248  264.7623 O   0  0  0  0  0  0
  191.4190  209.8157  263.6454 C   0  0  0  0  0  0
  193.1865  210.2634  263.7001 S   0  0  0  0  0  0
  190.4896  209.1495  260.3626 O   0  0  0  0  0  0
  193.1700  208.4296  258.5059 C   0  0  0  0  0  0
  195.2544  210.0071  260.5516 O   0  0  0  0  0  0
  195.9079  213.1602  260.1317 C   0  0  0  0  0  0
  194.7750  214.0792  260.6016 C   0  0  0  0  0  0
  193.9163  213.4656  257.5306 O   0  0  0  0  0  0
  194.9267  213.9055  254.5665 C   0  0  0  0  0  0
  198.6742  216.5826  251.3576 C   0  0  1  0  0  0
  197.3298  216.2889  250.6801 C   0  0  0  0  0  0
  197.1393  215.0269  250.2831 N   0  0  0  0  0  0
  195.9800  214.5743  249.5071 C   0  0  1  0  0  0
  196.2029  214.7384  247.9842 C   0  0  0  0  0  0
  197.9249  214.7939  254.8672 O   0  0  0  0  0  0
  197.9303  218.9785  252.9305 O   0  0  0  0  0  0
  199.3792  217.7665  250.6663 C   0  0  0  0  0  0
  196.5133  217.1920  250.5127 O   0  0  0  0  0  0
  197.3995  214.4702  247.4723 N   0  0  0  0  0  0
  195.2908  215.1303  247.2676 O   0  0  0  0  0  0
  195.6677  213.1133  249.9086 C   0  0  0  0  0  0
  194.3111  212.5624  249.4250 C   0  0  0  0  0  0
  197.5004  219.0455  255.6750 C   0  0  0  0  0  0
  197.0803  218.9151  257.1594 C   0  0  0  0  0  0
  196.8098  220.2845  257.8135 C   0  0  0  0  0  0
  196.0291  220.1775  259.0641 N   0  0  0  0  0  0
  196.4489  220.0400  260.3392 C   0  0  0  0  0  0
  197.7436  219.9251  260.6718 N   0  0  0  0  0  0
  195.5312  220.0254  261.3150 N   0  3  0  0  0  0
  194.1317  211.1097  249.8929 C   0  0  0  0  0  0
  192.8046  210.5396  249.6205 N   0  0  0  0  0  0
  192.4708  209.2383  249.7527 C   0  0  0  0  0  0
  191.2098  208.8687  249.5106 N   0  3  0  0  0  0
  193.3566  208.2984  250.1284 N   0  0  0  0  0  0
  193.5409  208.8832  257.0758 C   0  0  0  0  0  0
  191.8522  207.5586  255.8119 N   0  0  0  0  0  0
  193.2929  207.8161  255.9954 C   0  0  0  0  0  0
  191.1981  207.2412  254.6809 C   0  0  0  0  0  0
  191.8188  207.1171  253.4983 N   0  3  0  0  0  0
  189.8765  207.0392  254.7366 N   0  0  0  0  0  0
  193.5649  213.5519  261.0709 C   0  0  0  0  0  0
  192.5085  214.3982  261.4236 C   0  0  0  0  0  0
  192.6783  215.7823  261.3437 C   0  0  0  0  0  0
  193.8909  216.3146  260.9049 C   0  0  0  0  0  0
  194.9354  215.4672  260.5367 C   0  0  0  0  0  0
  191.2694  213.8717  261.9042 N   0  0  0  0  0  0
  190.4419  213.0181  261.2873 C   0  0  0  0  0  0
  190.6295  212.5182  260.0760 N   0  0  0  0  0  0
  189.3432  212.6369  261.9082 N   0  3  0  0  0  0
  195.4335  212.4667  254.3398 C   0  0  0  0  0  0
  194.8363  214.6818  253.2367 C   0  0  0  0  0  0
  189.2073  208.6178  261.7247 H   0  0  0  0  0  0
  191.5540  207.7581  262.9399 H   0  0  0  0  0  0
  193.4074  208.9907  261.5476 H   0  0  0  0  0  0
  192.3792  210.2962  259.1926 H   0  0  0  0  0  0
  193.7794  211.6603  258.2952 H   0  0  0  0  0  0
  196.5194  211.8482  258.4935 H   0  0  0  0  0  0
  197.0281  213.6123  256.9361 H   0  0  0  0  0  0
  194.9785  215.4063  256.1118 H   0  0  0  0  0  0
  195.9273  217.1440  255.4978 H   0  0  0  0  0  0
  198.8039  217.3484  255.4166 H   0  0  0  0  0  0
  198.5532  215.9404  253.3791 H   0  0  0  0  0  0
  187.2187  207.4508  262.3049 H   0  0  0  0  0  0
  186.8327  208.6962  263.5037 H   0  0  0  0  0  0
  186.9660  207.0047  263.9975 H   0  0  0  0  0  0
  190.8524  210.7146  263.4084 H   0  0  0  0  0  0
  191.1271  209.5326  264.6567 H   0  0  0  0  0  0
  193.1829  211.0681  262.6328 H   0  0  0  0  0  0
  193.8673  207.6569  258.8199 H   0  0  0  0  0  0
  192.1919  207.9473  258.5012 H   0  0  0  0  0  0
  196.1382  212.4715  260.9465 H   0  0  0  0  0  0
  196.8251  213.7415  260.0196 H   0  0  0  0  0  0
  193.8888  213.8088  254.8912 H   0  0  0  0  0  0
  199.3167  215.7088  251.2455 H   0  0  0  0  0  0
  197.9000  214.3615  250.3577 H   0  0  0  0  0  0
  195.1194  215.1884  249.7810 H   0  0  0  0  0  0
  199.6946  217.4981  249.6577 H   0  0  0  0  0  0
  198.7127  218.6234  250.5655 H   0  0  0  0  0  0
  200.2515  218.0953  251.2297 H   0  0  0  0  0  0
  198.1540  214.1078  248.0384 H   0  0  0  0  0  0
  197.5210  214.5815  246.4800 H   0  0  0  0  0  0
  196.4648  212.4581  249.5506 H   0  0  0  0  0  0
  195.6894  213.0332  250.9949 H   0  0  0  0  0  0
  193.4727  213.1924  249.7270 H   0  0  0  0  0  0
  194.3255  212.5715  248.3336 H   0  0  0  0  0  0
  198.3357  219.7406  255.5801 H   0  0  0  0  0  0
  196.6781  219.5141  255.1308 H   0  0  0  0  0  0
  196.2387  218.2374  257.3079 H   0  0  0  0  0  0
  197.9265  218.4550  257.6727 H   0  0  0  0  0  0
  197.7643  220.7345  258.0855 H   0  0  0  0  0  0
  196.3517  220.9866  257.1161 H   0  0  0  0  0  0
  195.0296  220.2186  258.9214 H   0  0  0  0  0  0
  198.0150  219.8361  261.6415 H   0  0  0  0  0  0
  198.4563  219.9308  259.9589 H   0  0  0  0  0  0
  195.8051  220.0148  262.2949 H   0  0  0  0  0  0
  194.8223  210.4986  249.3102 H   0  0  0  0  0  0
  194.3918  210.9888  250.9443 H   0  0  0  0  0  0
  192.0899  211.1941  249.3351 H   0  0  0  0  0  0
  190.9079  207.9012  249.6062 H   0  0  0  0  0  0
  193.0808  207.3282  250.1941 H   0  0  0  0  0  0
  194.3107  208.5539  250.3556 H   0  0  0  0  0  0
  192.9056  209.7416  256.8466 H   0  0  0  0  0  0
  194.5640  209.2554  257.0033 H   0  0  0  0  0  0
  191.3032  207.6298  256.6574 H   0  0  0  0  0  0
  193.8279  208.0567  255.0763 H   0  0  0  0  0  0
  193.7012  206.8664  256.3403 H   0  0  0  0  0  0
  191.2746  206.8902  252.6710 H   0  0  0  0  0  0
  189.3714  206.8409  253.8767 H   0  0  0  0  0  0
  189.3653  207.0519  255.6092 H   0  0  0  0  0  0
  193.4466  212.4836  261.1523 H   0  0  0  0  0  0
  191.8838  216.4586  261.6303 H   0  0  0  0  0  0
  194.0188  217.3857  260.8509 H   0  0  0  0  0  0
  195.8638  215.8952  260.1864 H   0  0  0  0  0  0
  190.8971  214.2855  262.7451 H   0  0  0  0  0  0
  189.9923  211.8073  259.7344 H   0  0  0  0  0  0
  191.3911  212.8520  259.5046 H   0  0  0  0  0  0
  188.6030  212.1935  261.3727 H   0  0  0  0  0  0
  196.5150  212.4108  254.4237 H   0  0  0  0  0  0
  195.0309  211.7920  255.0958 H   0  0  0  0  0  0
  195.1350  212.0681  253.3699 H   0  0  0  0  0  0
  195.8072  214.7758  252.7528 H   0  0  0  0  0  0
  194.1682  214.1822  252.5345 H   0  0  0  0  0  0
  194.4419  215.6872  253.3890 H   0  0  0  0  0  0
  190.4831  209.5560  249.3617 H   0  0  0  0  0  0
  194.5477  220.1180  261.1065 H   0  0  0  0  0  0
  192.8147  207.2595  253.4139 H   0  0  0  0  0  0
  189.2560  212.7185  262.9087 H   0  0  0  0  0  0
  1  2  1  0  0  0
  1 18  1  0  0  0
  1 19  2  0  0  0
  2  3  1  0  0  0
  2 71  1  0  0  0
  3  4  1  0  0  0
  3 20  1  0  0  0
  3 72  1  0  0  0
  4  5  1  0  0  0
  4 22  2  0  0  0
  5  6  1  0  0  0
  5 73  1  0  0  0
  6  7  1  0  0  0
  6 23  1  0  0  0
  6 74  1  0  0  0
  7  8  1  0  0  0
  7 24  2  0  0  0
  8  9  1  0  0  0
  8 75  1  0  0  0
  9 10  1  0  0  0
  9 25  1  0  0  0
  9 76  1  0  0  0
 10 11  1  0  0  0
 10 27  2  0  0  0
 11 12  1  0  0  0
 11 77  1  0  0  0
 12 13  1  0  0  0
 12 28  1  0  0  0
 12 78  1  0  0  0
 13 14  1  0  0  0
 13 34  2  0  0  0
 14 15  1  0  0  0
 14 79  1  0  0  0
 15 16  1  0  0  0
 15 42  1  0  0  0
 15 80  1  0  0  0
 16 17  1  0  0  0
 16 35  2  0  0  0
 17 29  1  0  0  0
 17 81  1  0  0  0
 18 82  1  0  0  0
 18 83  1  0  0  0
 18 84  1  0  0  0
 20 21  1  0  0  0
 20 85  1  0  0  0
 20 86  1  0  0  0
 21 87  1  0  0  0
 23 54  1  0  0  0
 23 88  1  0  0  0
 23 89  1  0  0  0
 25 26  1  0  0  0
 25 90  1  0  0  0
 25 91  1  0  0  0
 26 60  2  0  0  0
 26 64  1  0  0  0
 28 69  1  0  0  0
 28 70  1  0  0  0
 28 92  1  0  0  0
 29 30  1  0  0  0
 29 36  1  0  0  0
 29 93  1  0  0  0
 30 31  1  0  0  0
 30 37  2  0  0  0
 31 32  1  0  0  0
 31 94  1  0  0  0
 32 33  1  0  0  0
 32 40  1  0  0  0
 32 95  1  0  0  0
 33 38  1  0  0  0
 33 39  2  0  0  0
 36 96  1  0  0  0
 36 97  1  0  0  0
 36 98  1  0  0  0
 38 99  1  0  0  0
 38100  1  0  0  0
 40 41  1  0  0  0
 40101  1  0  0  0
 40102  1  0  0  0
 41 49  1  0  0  0
 41103  1  0  0  0
 41104  1  0  0  0
 42 43  1  0  0  0
 42105  1  0  0  0
 42106  1  0  0  0
 43 44  1  0  0  0
 43107  1  0  0  0
 43108  1  0  0  0
 44 45  1  0  0  0
 44109  1  0  0  0
 44110  1  0  0  0
 45 46  1  0  0  0
 45111  1  0  0  0
 46 47  1  0  0  0
 46 48  2  0  0  0
 47112  1  0  0  0
 47113  1  0  0  0
 48114  1  0  0  0
 48144  1  0  0  0
 49 50  1  0  0  0
 49115  1  0  0  0
 49116  1  0  0  0
 50 51  1  0  0  0
 50117  1  0  0  0
 51 52  2  0  0  0
 51 53  1  0  0  0
 52118  1  0  0  0
 52143  1  0  0  0
 53119  1  0  0  0
 53120  1  0  0  0
 54 56  1  0  0  0
 54121  1  0  0  0
 54122  1  0  0  0
 55 56  1  0  0  0
 55 57  1  0  0  0
 55123  1  0  0  0
 56124  1  0  0  0
 56125  1  0  0  0
 57 58  2  0  0  0
 57 59  1  0  0  0
 58126  1  0  0  0
 58145  1  0  0  0
 59127  1  0  0  0
 59128  1  0  0  0
 60 61  1  0  0  0
 60129  1  0  0  0
 61 62  2  0  0  0
 61 65  1  0  0  0
 62 63  1  0  0  0
 62130  1  0  0  0
 63 64  2  0  0  0
 63131  1  0  0  0
 64132  1  0  0  0
 65 66  1  0  0  0
 65133  1  0  0  0
 66 67  1  0  0  0
 66 68  2  0  0  0
 67134  1  0  0  0
 67135  1  0  0  0
 68136  1  0  0  0
 68146  1  0  0  0
 69137  1  0  0  0
 69138  1  0  0  0
 69139  1  0  0  0
 70140  1  0  0  0
 70141  1  0  0  0
 70142  1  0  0  0
M  CHG  4  48   1  52   1  58   1  68   1
M  END
> <s_m_entry_id>
82

> <s_m_entry_name>
STS005-ligand-20230714.56

> <s_m_Source_Path>
D:\xubinbin\STS005

> <s_m_Source_File>
prime_mmgbsa_all-20230714-out.maegz

> <i_m_Source_File_Index>
82

> <s_psp_Prime_MMGBSA_Input_Structure_Hash>
e3dfc8410657af70949dfd56de0f60d1e712b551cb966f4284b32845

> <i_psp_number_heavy_atoms>
70

> <b_psp_distorted_structure>
1

> <i_psp_model_num>
0

> <r_psp_Prime_Coulomb>
-43193.5933074793

> <r_psp_Prime_Covalent>
7575.98439317675

> <r_psp_Prime_vdW>
-6872.16453451193

> <r_psp_Prime_Lipo>
-3890.56147719038

> <r_psp_Prime_Solv_GB>
-13082.8610631683

> <r_psp_Prime_Energy>
-60548.0128938361

> <s_psp_Prime_Energy_Force_Field>
S-OPLS

> <s_psp_Prime_Energy_Solvent_Model>
VSGB2.1

> <r_psp_Prime_Bond_Covalent>
956.071258162088

> <r_psp_Prime_Bond_SGB>
111437.740343243

> <r_psp_Prime_Angle_Covalent>
3212.89966686065

> <r_psp_Prime_Angle_SGB>
-44094.3759226449

> <r_psp_Prime_Torsion_Covalent>
3407.01346815401

> <r_psp_Prime_NB14_LJ>
7963.40966589527

> <r_psp_Prime_NB14_Lipo>
0

> <r_psp_Prime_NB14_Elec>
48375.8837041764

> <r_psp_Prime_NB14_SGB>
-41214.5100034461

> <r_psp_Prime_NBShort_LJ>
-14069.7509393895

> <r_psp_Prime_NBShort_Lipo>
-3890.56147719038

> <r_psp_Prime_NBShort_Elec>
-95953.0192538694

> <r_psp_Prime_NBShort_SGB>
45232.7118722834

> <r_psp_Prime_NBLong_LJ>
-765.823261017723

> <r_psp_Prime_NBLong_Lipo>
0

> <r_psp_Prime_NBLong_Elec>
4383.54224221367

> <r_psp_Prime_NBLong_SGB>
-4197.38447773329

> <r_psp_Prime_Self_SGB>
-80247.0428748701

> <r_psp_Prime_Hbond>
-776.748596221996

> <r_psp_Prime_Packing>
-136.009349819834

> <r_psp_Prime_SelfCont>
-172.058958621051

> <i_lp_mmshare_version>
54117

> <s_epik_input>
W0hdXE49QyhbTkgyXSlcW05IXVtDSDJdW0NIMl1bQ0gyXVtDQEBIXShbTkhdQyg9TylbQ0BASF0oW0NIMl1bU0hdKVtOSF1DKD1PKVtDSDNdKUMoPU8pW05IXVtDQEhdKFtDSDJdYzFbY0hdYyhbY0hdW2NIXVtjSF0xKVtOSF0vQyhbTkgyXSk9Ti9bSF0pQyg9TylbTkhdW0NASF0oW0NIXShbQ0gzXSlbQ0gzXSlDKD1PKVtOSF1bQ0BIXShbQ0gyXVtDSDJdW0NIMl1bTkhdL0MoW05IMl0pPU4vW0hdKUMoPU8pW05IXVtDQEhdKFtDSDNdKUMoPU8pW05IXVtDQEBIXShDKD1PKVtOSDJdKVtDSDJdW0NIMl1bQ0gyXVtOSF0vQyg9Ti9bSF0pW05IMl0=

> <s_epik_cmdline>
J2VwaWtfcHl0aG9uJywgJy1waCcsICc3LjAnLCAnLXRuJywgJzgnLCAnLW1hJywgJzUwMCcsICctaW1hZScsICc8aW5maWxlLm1hZT4nLCAnLW9tYWUnLCAnPG91dGZpbGUubWFlPic=

> <r_epik_Ionization_Penalty>
  0.0087

> <r_epik_Ionization_Penalty_Charging>
  0.0001

> <r_epik_Ionization_Penalty_Neutral>
  0.0087

> <r_epik_State_Penalty>
  0.0065

> <r_epik_Charging_Adjusted_Penalty>
0.00661178599936471

> <i_epik_Tot_Q>
4

> <i_epik_Tot_abs_Q>
4

> <s_epik_Chemistry_Notes>
This compound has an imine and may undergo hydrolysis.

> <i_f3d_flags>
0

> <s_lp_Force_Field>
S-OPLS

> <r_lp_Energy>
25.901678

> <b_lp_Chiralities_Consistent>
1

> <s_lp_Variant>
089-1

> <s_i_glide_gridfile>
glide-grid_D-site

> <i_i_glide_lignum>
111

> <i_i_glide_rotatable_bonds>
43

> <r_i_docking_score>
-5.47440491000572

> <r_i_glide_ligand_efficiency>
-0.0782057844286532

> <r_i_glide_ligand_efficiency_sa>
-0.322308349269363

> <r_i_glide_ligand_efficiency_ln>
-1.04304274988123

> <r_glide_XP_GScore>
-5.48090491000572

> <r_i_glide_gscore>
-5.48090491000572

> <r_i_glide_evdw>
-40.8855323791504

> <r_i_glide_ecoul>
-40.8246841430664

> <r_i_glide_energy>
-81.7102165222168

> <r_i_glide_einternal>
16.5510787963867

> <r_i_glide_emodel>
-91.8249969482422

> <r_glide_XP_HBond>
-2.66712826550105

> <i_i_glide_confnum>
1

> <i_i_glide_posenum>
1

> <r_i_glide_eff_state_penalty>
0.0065

> <i_glide_XP_PoseRank>
1

> <s_psp_MMGBSA_moved_residues>


> <r_psp_MMGBSA_dG_Bind>
-60.5465160985841

> <r_psp_MMGBSA_dG_Bind_Coulomb>
-648.323337262518

> <r_psp_MMGBSA_dG_Bind_Covalent>
12.2635121496023

> <r_psp_MMGBSA_dG_Bind_Hbond>
-8.92586044709844

> <r_psp_MMGBSA_dG_Bind_Lipo>
-6.33801211826176

> <r_psp_MMGBSA_dG_Bind_Packing>
-0.000218295124085444

> <r_psp_MMGBSA_dG_Bind_SelfCont>
0

> <r_psp_MMGBSA_dG_Bind_Solv_GB>
652.219017046329

> <r_psp_MMGBSA_dG_Bind_vdW>
-61.4416171715193

> <r_psp_Lig_Strain_Energy>
19.2408877566145

> <r_psp_Lig_Strain_Coulomb>
15.8814848231537

> <r_psp_Lig_Strain_Covalent>
12.263512149598

> <r_psp_Lig_Strain_Hbond>
0

> <r_psp_Lig_Strain_Lipo>
0.803828697932819

> <r_psp_Lig_Strain_Packing>
0

> <r_psp_Lig_Strain_SelfCont>
0

> <r_psp_Lig_Strain_Solv_GB>
-14.6713356779587

> <r_psp_Lig_Strain_vdW>
4.96339776388878

> <r_psp_Ligand_Energy>
-280.593509579531

> <r_psp_Ligand_Coulomb>
-74.9783309717937

> <r_psp_Ligand_Covalent>
27.9687050293744

> <r_psp_Ligand_Hbond>
0

> <r_psp_Ligand_Lipo>
-7.17470301030773

> <r_psp_Ligand_Packing>
0

> <r_psp_Ligand_SelfCont>
0

> <r_psp_Ligand_Solv_GB>
-238.735863251176

> <r_psp_Ligand_vdW>
12.3266826243719

> <r_psp_Complex_Energy>
-60548.0128938361

> <r_psp_Complex_Coulomb>
-43193.5933074793

> <r_psp_Complex_Covalent>
7575.98439317675

> <r_psp_Complex_Hbond>
-776.748596221996

> <r_psp_Complex_Lipo>
-3890.56147719038

> <r_psp_Complex_Packing>
-136.009349819834

> <r_psp_Complex_SelfCont>
-172.058958621051

> <r_psp_Complex_Solv_GB>
-13082.8610631683

> <r_psp_Complex_vdW>
-6872.16453451193

> <r_psp_Receptor_Energy>
-60206.872868158

> <r_psp_Receptor_Coulomb>
-42470.291639245

> <r_psp_Receptor_Covalent>
7535.75217599777

> <r_psp_Receptor_Hbond>
-767.822735774897

> <r_psp_Receptor_Lipo>
-3877.04876206181

> <r_psp_Receptor_Packing>
-136.00913152471

> <r_psp_Receptor_SelfCont>
-172.058958621051

> <r_psp_Receptor_Solv_GB>
-13496.3442169635

> <r_psp_Receptor_vdW>
-6823.04959996478

> <r_psp_MMGBSA_dG_Bind(NS)>
-79.7874038551963

> <r_psp_MMGBSA_dG_Bind(NS)_Coulomb>
-664.204822085674

> <r_psp_MMGBSA_dG_Bind(NS)_Covalent>
4.54747350886464e-12

> <r_psp_MMGBSA_dG_Bind(NS)_Hbond>
-8.92586044709844

> <r_psp_MMGBSA_dG_Bind(NS)_Lipo>
-7.14184081619487

> <r_psp_MMGBSA_dG_Bind(NS)_Packing>
-0.000218295124085444

> <r_psp_MMGBSA_dG_Bind(NS)_SelfCont>
0

> <r_psp_MMGBSA_dG_Bind(NS)_Solv_GB>
666.890352724289

> <r_psp_MMGBSA_dG_Bind(NS)_vdW>
-66.405014935408

> <r_psp_Rec_Strain_Energy>
0

> <r_psp_Rec_Strain_Coulomb>
0

> <r_psp_Rec_Strain_Covalent>
0

> <r_psp_Rec_Strain_Hbond>
0

> <r_psp_Rec_Strain_Lipo>
0

> <r_psp_Rec_Strain_Packing>
0

> <r_psp_Rec_Strain_SelfCont>
0

> <r_psp_Rec_Strain_Solv_GB>
0

> <r_psp_Rec_Strain_vdW>
0

> <r_psp_Prime_MMGBSA_ligand_efficiency>
-0.864950229979773

> <r_psp_Prime_MMGBSA_ligand_efficiency_sa>
-1.29742534496966

> <r_psp_Prime_MMGBSA_ligand_efficiency_ln>
-11.5359761810402

> <Name>
89

> <s_m_subgroup_title>
prime_mmgbsa_all-20230714-out

> <s_m_subgroupid>
prime_mmgbsa_all-20230714-out

> <b_m_subgroup_collapsed>
0

$$$$
