STS005_prime_MMGBSA_result_29
                    3D
 Schrodinger Suite 2021-3.
148149  0  0  1  0            999 V2000
  197.0167  214.9759  247.4114 C   0  0  0  0  0  0
  197.6999  215.2696  248.5239 N   0  0  0  0  0  0
  197.1913  216.0902  249.6307 C   0  0  1  0  0  0
  196.4181  215.1637  250.5963 C   0  0  0  0  0  0
  195.3362  214.5824  250.0599 N   0  0  0  0  0  0
  194.6256  213.4091  250.5660 C   0  0  1  0  0  0
  194.0759  213.5479  252.0011 C   0  0  0  0  0  0
  194.6687  212.7812  252.9217 N   0  0  0  0  0  0
  194.1867  212.4642  254.2628 C   0  0  1  0  0  0
  195.1282  211.3604  254.7680 C   0  0  0  0  0  0
  194.5880  210.3382  255.4327 N   0  0  0  0  0  0
  195.3632  209.2513  256.0304 C   0  0  1  0  0  0
  194.4469  208.5935  257.0671 C   0  0  0  0  0  0
  194.0387  209.4113  258.0381 N   0  0  0  0  0  0
  193.2620  209.0351  259.2093 C   0  0  1  0  0  0
  193.8504  209.8317  260.3837 C   0  0  0  0  0  0
  193.0332  210.0811  261.4008 N   0  0  0  0  0  0
  197.6713  214.0267  246.4206 C   0  0  0  0  0  0
  195.8904  215.4219  247.1950 O   0  0  0  0  0  0
  198.3278  216.9186  250.2859 C   0  0  0  0  0  0
  197.8289  218.5491  250.9829 S   0  5  0  0  0  0
  196.8544  214.9134  251.7181 O   0  0  0  0  0  0
  193.5190  213.0282  249.5435 C   0  0  0  0  0  0
  193.0864  214.2472  252.2119 O   0  0  0  0  0  0
  194.1665  213.6873  255.2183 C   0  0  0  0  0  0
  193.6033  213.3808  256.6072 C   0  0  0  0  0  0
  196.3317  211.4612  254.5484 O   0  0  0  0  0  0
  195.9562  208.2824  254.9747 C   0  0  0  0  0  0
  193.3336  210.8511  262.5908 C   0  0  1  0  0  0
  191.9746  211.3171  263.1278 C   0  0  0  0  0  0
  191.9623  212.3043  264.0292 N   0  0  0  0  0  0
  190.7182  212.8757  264.5497 C   0  0  1  0  0  0
  190.9369  213.4405  265.9634 C   0  0  0  0  0  0
  194.0642  207.4345  256.9361 O   0  0  0  0  0  0
  195.0248  210.2063  260.3506 O   0  0  0  0  0  0
  194.0860  209.9484  263.5738 C   0  0  0  0  0  0
  190.9503  210.7914  262.6835 O   0  0  0  0  0  0
  191.3899  214.6777  266.1045 N   0  0  0  0  0  0
  190.6854  212.7437  266.9377 O   0  0  0  0  0  0
  190.0816  213.8464  263.5104 C   0  0  0  0  0  0
  188.7129  214.4655  263.8871 C   0  0  0  0  0  0
  191.7498  209.2860  258.9875 C   0  0  0  0  0  0
  191.1063  208.3819  257.9313 C   0  0  0  0  0  0
  189.5964  208.6348  257.8083 C   0  0  0  0  0  0
  189.0078  207.8256  256.7382 N   0  0  0  0  0  0
  189.0670  208.0507  255.4149 C   0  0  0  0  0  0
  189.6337  209.1436  254.8792 N   0  0  0  0  0  0
  188.5495  207.1211  254.6142 N   0  3  0  0  0  0
  187.6720  213.5195  264.5255 C   0  0  0  0  0  0
  187.3772  212.3300  263.7037 N   0  0  0  0  0  0
  186.6259  211.2696  264.0606 C   0  0  0  0  0  0
  186.4939  210.2477  263.2105 N   0  3  0  0  0  0
  185.9968  211.1931  265.2444 N   0  0  0  0  0  0
  192.6838  211.7623  249.8533 C   0  0  0  0  0  0
  192.7360  209.3081  250.3994 N   0  0  0  0  0  0
  193.5344  210.5374  250.2290 C   0  0  0  0  0  0
  192.9905  208.3009  251.2603 C   0  0  0  0  0  0
  193.9853  208.3347  252.1471 N   0  3  0  0  0  0
  192.2490  207.1973  251.2448 N   0  0  0  0  0  0
  196.9490  207.2811  255.5410 C   0  0  0  0  0  0
  196.6294  205.9255  255.5992 C   0  0  0  0  0  0
  197.5375  205.0408  256.1819 C   0  0  0  0  0  0
  198.7429  205.4381  256.6652 N   0  0  0  0  0  0
  199.0658  206.7501  256.5340 C   0  0  0  0  0  0
  198.1988  207.6965  255.9917 C   0  0  0  0  0  0
  192.2231  213.2454  256.8091 C   0  0  0  0  0  0
  191.7159  213.0176  258.0959 C   0  0  0  0  0  0
  192.5947  212.8979  259.1757 C   0  0  0  0  0  0
  193.9705  213.0153  258.9742 C   0  0  0  0  0  0
  194.4721  213.2583  257.6963 C   0  0  0  0  0  0
  190.3085  212.8909  258.3241 N   0  0  0  0  0  0
  189.3764  213.8406  258.1824 C   0  0  0  0  0  0
  189.6210  215.0792  257.7815 N   0  0  0  0  0  0
  188.1229  213.5427  258.4626 N   0  3  0  0  0  0
  198.5507  214.7510  248.7224 H   0  0  0  0  0  0
  196.4692  216.8019  249.2289 H   0  0  0  0  0  0
  195.1213  214.8614  249.1099 H   0  0  0  0  0  0
  195.3668  212.6070  250.5681 H   0  0  0  0  0  0
  195.5369  212.3112  252.6928 H   0  0  0  0  0  0
  193.1774  212.0607  254.1623 H   0  0  0  0  0  0
  193.5946  210.3086  255.6077 H   0  0  0  0  0  0
  196.1934  209.7029  256.5798 H   0  0  0  0  0  0
  194.4705  210.3231  258.1069 H   0  0  0  0  0  0
  193.4095  207.9760  259.4277 H   0  0  0  0  0  0
  192.0565  209.8056  261.3698 H   0  0  0  0  0  0
  197.8494  213.0566  246.8853 H   0  0  0  0  0  0
  198.6250  214.4276  246.0782 H   0  0  0  0  0  0
  197.0322  213.8754  245.5502 H   0  0  0  0  0  0
  198.8637  216.3179  251.0233 H   0  0  0  0  0  0
  199.0912  217.1135  249.5310 H   0  0  0  0  0  0
  192.8268  213.8663  249.4421 H   0  0  0  0  0  0
  193.9752  212.9019  248.5603 H   0  0  0  0  0  0
  195.1654  214.1217  255.3041 H   0  0  0  0  0  0
  193.5733  214.4976  254.7924 H   0  0  0  0  0  0
  195.1580  207.7443  254.4705 H   0  0  0  0  0  0
  196.4773  208.8518  254.2053 H   0  0  0  0  0  0
  193.9386  211.7213  262.3281 H   0  0  0  0  0  0
  192.8140  212.6619  264.4387 H   0  0  0  0  0  0
  190.0263  212.0430  264.6909 H   0  0  0  0  0  0
  194.3327  210.4887  264.4785 H   0  0  0  0  0  0
  193.4917  209.0756  263.8446 H   0  0  0  0  0  0
  195.0262  209.5937  263.1498 H   0  0  0  0  0  0
  191.6392  215.2481  265.3124 H   0  0  0  0  0  0
  191.5318  215.0172  267.0412 H   0  0  0  0  0  0
  190.7792  214.6563  263.2925 H   0  0  0  0  0  0
  189.9553  213.3172  262.5649 H   0  0  0  0  0  0
  188.9380  215.2165  264.6459 H   0  0  0  0  0  0
  188.2762  215.0337  263.0640 H   0  0  0  0  0  0
  191.1983  209.1171  259.9138 H   0  0  0  0  0  0
  191.5862  210.3275  258.7243 H   0  0  0  0  0  0
  191.5998  208.4405  256.9613 H   0  0  0  0  0  0
  191.2583  207.3558  258.2738 H   0  0  0  0  0  0
  189.1090  208.2733  258.7149 H   0  0  0  0  0  0
  189.3468  209.6927  257.7275 H   0  0  0  0  0  0
  188.6023  206.9467  257.0383 H   0  0  0  0  0  0
  189.6826  209.2607  253.8765 H   0  0  0  0  0  0
  190.0283  209.8529  255.4783 H   0  0  0  0  0  0
  188.6695  207.1514  253.6042 H   0  0  0  0  0  0
  187.9106  213.2840  265.5635 H   0  0  0  0  0  0
  186.7213  214.0538  264.5495 H   0  0  0  0  0  0
  187.7512  212.3388  262.7636 H   0  0  0  0  0  0
  185.9437  209.4390  263.4668 H   0  0  0  0  0  0
  185.3898  210.4079  265.4430 H   0  0  0  0  0  0
  186.0559  211.9551  265.9039 H   0  0  0  0  0  0
  192.0463  212.0039  250.7063 H   0  0  0  0  0  0
  191.9917  211.5322  249.0412 H   0  0  0  0  0  0
  191.9458  209.2048  249.7767 H   0  0  0  0  0  0
  194.3629  210.3845  249.5361 H   0  0  0  0  0  0
  193.9824  210.7461  251.1970 H   0  0  0  0  0  0
  194.1726  207.5420  252.7421 H   0  0  0  0  0  0
  192.4695  206.4093  251.8354 H   0  0  0  0  0  0
  191.4264  207.1032  250.6524 H   0  0  0  0  0  0
  195.6930  205.5801  255.1932 H   0  0  0  0  0  0
  197.3099  203.9864  256.2453 H   0  0  0  0  0  0
  200.0234  207.0639  256.9117 H   0  0  0  0  0  0
  198.4876  208.7308  255.9193 H   0  0  0  0  0  0
  191.5517  213.3431  255.9662 H   0  0  0  0  0  0
  192.2244  212.7174  260.1761 H   0  0  0  0  0  0
  194.6518  212.9178  259.8090 H   0  0  0  0  0  0
  195.5406  213.3548  257.5549 H   0  0  0  0  0  0
  189.9822  212.0560  258.7902 H   0  0  0  0  0  0
  188.8790  215.7608  257.7561 H   0  0  0  0  0  0
  190.5664  215.3488  257.5554 H   0  0  0  0  0  0
  187.3722  214.0990  258.0833 H   0  0  0  0  0  0
  186.8551  210.2986  262.2607 H   0  0  0  0  0  0
  188.1433  206.2859  255.0187 H   0  0  0  0  0  0
  194.7267  209.0222  252.0484 H   0  0  0  0  0  0
  187.8993  212.7420  259.0453 H   0  0  0  0  0  0
  1  2  1  0  0  0
  1 18  1  0  0  0
  1 19  2  0  0  0
  2  3  1  0  0  0
  2 75  1  0  0  0
  3  4  1  0  0  0
  3 20  1  0  0  0
  3 76  1  0  0  0
  4  5  1  0  0  0
  4 22  2  0  0  0
  5  6  1  0  0  0
  5 77  1  0  0  0
  6  7  1  0  0  0
  6 23  1  0  0  0
  6 78  1  0  0  0
  7  8  1  0  0  0
  7 24  2  0  0  0
  8  9  1  0  0  0
  8 79  1  0  0  0
  9 10  1  0  0  0
  9 25  1  0  0  0
  9 80  1  0  0  0
 10 11  1  0  0  0
 10 27  2  0  0  0
 11 12  1  0  0  0
 11 81  1  0  0  0
 12 13  1  0  0  0
 12 28  1  0  0  0
 12 82  1  0  0  0
 13 14  1  0  0  0
 13 34  2  0  0  0
 14 15  1  0  0  0
 14 83  1  0  0  0
 15 16  1  0  0  0
 15 42  1  0  0  0
 15 84  1  0  0  0
 16 17  1  0  0  0
 16 35  2  0  0  0
 17 29  1  0  0  0
 17 85  1  0  0  0
 18 86  1  0  0  0
 18 87  1  0  0  0
 18 88  1  0  0  0
 20 21  1  0  0  0
 20 89  1  0  0  0
 20 90  1  0  0  0
 23 54  1  0  0  0
 23 91  1  0  0  0
 23 92  1  0  0  0
 25 26  1  0  0  0
 25 93  1  0  0  0
 25 94  1  0  0  0
 26 66  2  0  0  0
 26 70  1  0  0  0
 28 60  1  0  0  0
 28 95  1  0  0  0
 28 96  1  0  0  0
 29 30  1  0  0  0
 29 36  1  0  0  0
 29 97  1  0  0  0
 30 31  1  0  0  0
 30 37  2  0  0  0
 31 32  1  0  0  0
 31 98  1  0  0  0
 32 33  1  0  0  0
 32 40  1  0  0  0
 32 99  1  0  0  0
 33 38  1  0  0  0
 33 39  2  0  0  0
 36100  1  0  0  0
 36101  1  0  0  0
 36102  1  0  0  0
 38103  1  0  0  0
 38104  1  0  0  0
 40 41  1  0  0  0
 40105  1  0  0  0
 40106  1  0  0  0
 41 49  1  0  0  0
 41107  1  0  0  0
 41108  1  0  0  0
 42 43  1  0  0  0
 42109  1  0  0  0
 42110  1  0  0  0
 43 44  1  0  0  0
 43111  1  0  0  0
 43112  1  0  0  0
 44 45  1  0  0  0
 44113  1  0  0  0
 44114  1  0  0  0
 45 46  1  0  0  0
 45115  1  0  0  0
 46 47  1  0  0  0
 46 48  2  0  0  0
 47116  1  0  0  0
 47117  1  0  0  0
 48118  1  0  0  0
 48146  1  0  0  0
 49 50  1  0  0  0
 49119  1  0  0  0
 49120  1  0  0  0
 50 51  1  0  0  0
 50121  1  0  0  0
 51 52  2  0  0  0
 51 53  1  0  0  0
 52122  1  0  0  0
 52145  1  0  0  0
 53123  1  0  0  0
 53124  1  0  0  0
 54 56  1  0  0  0
 54125  1  0  0  0
 54126  1  0  0  0
 55 56  1  0  0  0
 55 57  1  0  0  0
 55127  1  0  0  0
 56128  1  0  0  0
 56129  1  0  0  0
 57 58  2  0  0  0
 57 59  1  0  0  0
 58130  1  0  0  0
 58147  1  0  0  0
 59131  1  0  0  0
 59132  1  0  0  0
 60 61  2  0  0  0
 60 65  1  0  0  0
 61 62  1  0  0  0
 61133  1  0  0  0
 62 63  2  0  0  0
 62134  1  0  0  0
 63 64  1  0  0  0
 64 65  2  0  0  0
 64135  1  0  0  0
 65136  1  0  0  0
 66 67  1  0  0  0
 66137  1  0  0  0
 67 68  2  0  0  0
 67 71  1  0  0  0
 68 69  1  0  0  0
 68138  1  0  0  0
 69 70  2  0  0  0
 69139  1  0  0  0
 70140  1  0  0  0
 71 72  1  0  0  0
 71141  1  0  0  0
 72 73  1  0  0  0
 72 74  2  0  0  0
 73142  1  0  0  0
 73143  1  0  0  0
 74144  1  0  0  0
 74148  1  0  0  0
M  CHG  5  21  -1  48   1  52   1  58   1  74   1
M  END
> <s_m_entry_id>
104

> <s_m_entry_name>
STS005-ligand-20230714.28

> <s_m_Source_Path>
D:\xubinbin\STS005

> <s_m_Source_File>
prime_mmgbsa_all-20230714-out.maegz

> <i_m_Source_File_Index>
104

> <s_psp_Prime_MMGBSA_Input_Structure_Hash>
ef8811d304bb02fa2e09df33c418958dd0ea1d268f2e0410590dbbd4

> <i_psp_number_heavy_atoms>
74

> <b_psp_distorted_structure>
1

> <i_psp_model_num>
0

> <r_psp_Prime_Coulomb>
-43182.6396586578

> <r_psp_Prime_Covalent>
7586.38481074478

> <r_psp_Prime_vdW>
-6870.40760385483

> <r_psp_Prime_Lipo>
-3893.70187450069

> <r_psp_Prime_Solv_GB>
-13121.1157418335

> <r_psp_Prime_Energy>
-60570.8361216812

> <s_psp_Prime_Energy_Force_Field>
S-OPLS

> <s_psp_Prime_Energy_Solvent_Model>
VSGB2.1

> <r_psp_Prime_Bond_Covalent>
956.430283655575

> <r_psp_Prime_Bond_SGB>
111353.539552718

> <r_psp_Prime_Angle_Covalent>
3210.22443145583

> <r_psp_Prime_Angle_SGB>
-44039.9760776079

> <r_psp_Prime_Torsion_Covalent>
3419.73009563337

> <r_psp_Prime_NB14_LJ>
7972.84510616965

> <r_psp_Prime_NB14_Lipo>
0

> <r_psp_Prime_NB14_Elec>
48364.9224939453

> <r_psp_Prime_NB14_SGB>
-41211.3670685303

> <r_psp_Prime_NBShort_LJ>
-14078.0534236127

> <r_psp_Prime_NBShort_Lipo>
-3893.70187450069

> <r_psp_Prime_NBShort_Elec>
-96005.5687907296

> <r_psp_Prime_NBShort_SGB>
45249.9608886855

> <r_psp_Prime_NBLong_LJ>
-765.199286411794

> <r_psp_Prime_NBLong_Lipo>
0

> <r_psp_Prime_NBLong_Elec>
4458.00663812645

> <r_psp_Prime_NBLong_SGB>
-4268.67526994932

> <r_psp_Prime_Self_SGB>
-80204.5977671493

> <r_psp_Prime_Hbond>
-779.969728361465

> <r_psp_Prime_Packing>
-137.327366596634

> <r_psp_Prime_SelfCont>
-172.058958621051

> <i_lp_mmshare_version>
54117

> <s_epik_input>
W0hdXE49QyhbTkgyXSlcW05IXVtDSDJdW0NIMl1bQ0gyXVtDQEBIXShbTkhdQyg9TylbQ0BASF0oW0NIMl1bU0hdKVtOSF1DKD1PKVtDSDNdKUMoPU8pW05IXVtDQEhdKFtDSDJdYzFbY0hdYyhbY0hdW2NIXVtjSF0xKVtOSF0vQyhbTkgyXSk9Ti9bSF0pQyg9TylbTkhdW0NASF0oW0NIMl1jMltjSF1bY0hdbltjSF1bY0hdMilDKD1PKVtOSF1bQ0BIXShbQ0gyXVtDSDJdW0NIMl1bTkhdL0MoW05IMl0pPU4vW0hdKUMoPU8pW05IXVtDQEhdKFtDSDNdKUMoPU8pW05IXVtDQEBIXShDKD1PKVtOSDJdKVtDSDJdW0NIMl1bQ0gyXVtOSF0vQyg9Ti9bSF0pW05IMl0=

> <s_epik_cmdline>
J2VwaWtfcHl0aG9uJywgJy1waCcsICc3LjAnLCAnLXRuJywgJzgnLCAnLW1hJywgJzUwMCcsICctaW1hZScsICc8aW5maWxlLm1hZT4nLCAnLW9tYWUnLCAnPG91dGZpbGUubWFlPic=

> <r_epik_Ionization_Penalty>
  2.5160

> <r_epik_Ionization_Penalty_Charging>
  2.5081

> <r_epik_Ionization_Penalty_Neutral>
  0.0079

> <r_epik_State_Penalty>
  2.6794

> <r_epik_Charging_Adjusted_Penalty>
5.18743659203208

> <i_epik_Tot_Q>
3

> <i_epik_Tot_abs_Q>
5

> <s_epik_Chemistry_Notes>
This compound has an imine and may undergo hydrolysis.

> <i_f3d_flags>
0

> <s_lp_Force_Field>
S-OPLS

> <r_lp_Energy>
35.015592

> <b_lp_Chiralities_Consistent>
1

> <s_lp_Variant>
044-2

> <s_i_glide_gridfile>
glide-grid_D-site

> <i_i_glide_lignum>
55

> <i_i_glide_rotatable_bonds>
43

> <r_i_docking_score>
-4.87877033779706

> <r_i_glide_ligand_efficiency>
-0.0659293288891495

> <r_i_glide_ligand_efficiency_sa>
-0.276793504453328

> <r_i_glide_ligand_efficiency_ln>
-0.919817206626665

> <r_glide_XP_GScore>
-7.55817033779706

> <r_i_glide_gscore>
-7.55817033779706

> <r_i_glide_evdw>
-49.6419944763184

> <r_i_glide_ecoul>
-50.8200187683105

> <r_i_glide_energy>
-100.462013244629

> <r_i_glide_einternal>
27.5129508972168

> <r_i_glide_emodel>
-148.61491394043

> <r_glide_XP_HBond>
-4.24163626075248

> <i_i_glide_confnum>
1

> <i_i_glide_posenum>
1

> <r_i_glide_eff_state_penalty>
2.6794

> <i_glide_XP_PoseRank>
1

> <s_psp_MMGBSA_moved_residues>


> <r_psp_MMGBSA_dG_Bind>
-70.4373994242778

> <r_psp_MMGBSA_dG_Bind_Coulomb>
-591.522105284232

> <r_psp_MMGBSA_dG_Bind_Covalent>
10.8495442596659

> <r_psp_MMGBSA_dG_Bind_Hbond>
-12.1469925865678

> <r_psp_MMGBSA_dG_Bind_Lipo>
-7.81024297650674

> <r_psp_MMGBSA_dG_Bind_Packing>
-1.31823507192368

> <r_psp_MMGBSA_dG_Bind_SelfCont>
0

> <r_psp_MMGBSA_dG_Bind_Solv_GB>
596.049256557288

> <r_psp_MMGBSA_dG_Bind_vdW>
-64.5386243220064

> <r_psp_Lig_Strain_Energy>
18.1858402890093

> <r_psp_Lig_Strain_Coulomb>
18.1582172676174

> <r_psp_Lig_Strain_Covalent>
10.8495442596615

> <r_psp_Lig_Strain_Hbond>
0

> <r_psp_Lig_Strain_Lipo>
1.4767553045878

> <r_psp_Lig_Strain_Packing>
0

> <r_psp_Lig_Strain_SelfCont>
0

> <r_psp_Lig_Strain_Solv_GB>
-18.9704943237955

> <r_psp_Lig_Strain_vdW>
6.67181778093811

> <r_psp_Ligand_Energy>
-293.525854098969

> <r_psp_Ligand_Coulomb>
-120.82591412859

> <r_psp_Ligand_Covalent>
39.7830904873359

> <r_psp_Ligand_Hbond>
0

> <r_psp_Ligand_Lipo>
-8.84286946237348

> <r_psp_Ligand_Packing>
0

> <r_psp_Ligand_SelfCont>
0

> <r_psp_Ligand_Solv_GB>
-220.820781427299

> <r_psp_Ligand_vdW>
17.1806204319576

> <r_psp_Complex_Energy>
-60570.8361216812

> <r_psp_Complex_Coulomb>
-43182.6396586578

> <r_psp_Complex_Covalent>
7586.38481074478

> <r_psp_Complex_Hbond>
-779.969728361465

> <r_psp_Complex_Lipo>
-3893.70187450069

> <r_psp_Complex_Packing>
-137.327366596634

> <r_psp_Complex_SelfCont>
-172.058958621051

> <r_psp_Complex_Solv_GB>
-13121.1157418335

> <r_psp_Complex_vdW>
-6870.40760385483

> <r_psp_Receptor_Energy>
-60206.872868158

> <r_psp_Receptor_Coulomb>
-42470.291639245

> <r_psp_Receptor_Covalent>
7535.75217599777

> <r_psp_Receptor_Hbond>
-767.822735774897

> <r_psp_Receptor_Lipo>
-3877.04876206181

> <r_psp_Receptor_Packing>
-136.00913152471

> <r_psp_Receptor_SelfCont>
-172.058958621051

> <r_psp_Receptor_Solv_GB>
-13496.3442169635

> <r_psp_Receptor_vdW>
-6823.04959996478

> <r_psp_MMGBSA_dG_Bind(NS)>
-88.6232397132844

> <r_psp_MMGBSA_dG_Bind(NS)_Coulomb>
-609.680322551845

> <r_psp_MMGBSA_dG_Bind(NS)_Covalent>
4.54747350886464e-12

> <r_psp_MMGBSA_dG_Bind(NS)_Hbond>
-12.1469925865678

> <r_psp_MMGBSA_dG_Bind(NS)_Lipo>
-9.28699828109438

> <r_psp_MMGBSA_dG_Bind(NS)_Packing>
-1.31823507192368

> <r_psp_MMGBSA_dG_Bind(NS)_SelfCont>
0

> <r_psp_MMGBSA_dG_Bind(NS)_Solv_GB>
615.019750881083

> <r_psp_MMGBSA_dG_Bind(NS)_vdW>
-71.2104421029444

> <r_psp_Rec_Strain_Energy>
0

> <r_psp_Rec_Strain_Coulomb>
0

> <r_psp_Rec_Strain_Covalent>
0

> <r_psp_Rec_Strain_Hbond>
0

> <r_psp_Rec_Strain_Lipo>
0

> <r_psp_Rec_Strain_Packing>
0

> <r_psp_Rec_Strain_SelfCont>
0

> <r_psp_Rec_Strain_Solv_GB>
0

> <r_psp_Rec_Strain_vdW>
0

> <r_psp_Prime_MMGBSA_ligand_efficiency>
-0.951856748976727

> <r_psp_Prime_MMGBSA_ligand_efficiency_sa>
-1.42778512346509

> <r_psp_Prime_MMGBSA_ligand_efficiency_ln>
-13.2798897046957

> <Name>
44

> <s_m_subgroup_title>
prime_mmgbsa_all-20230714-out

> <s_m_subgroupid>
prime_mmgbsa_all-20230714-out

> <b_m_subgroup_collapsed>
0

$$$$
