STS005_prime_MMGBSA_result_72
                    3D
 Schrodinger Suite 2021-3.
155155  0  0  1  0            999 V2000
  186.1211  210.9160  264.0700 C   0  0  0  0  0  0
  187.3371  211.0356  264.6102 N   0  0  0  0  0  0
  188.5826  210.6807  263.9423 C   0  0  1  0  0  0
  189.6774  211.4574  264.6740 C   0  0  0  0  0  0
  190.6362  211.9879  263.9140 N   0  0  0  0  0  0
  191.8103  212.6715  264.4376 C   0  0  1  0  0  0
  192.8550  212.6470  263.3314 C   0  0  0  0  0  0
  192.5874  213.4291  262.2847 N   0  0  0  0  0  0
  193.1194  213.2167  260.9426 C   0  0  1  0  0  0
  192.2362  212.1717  260.2307 C   0  0  0  0  0  0
  192.7987  211.5291  259.2036 N   0  0  0  0  0  0
  192.1649  210.5676  258.3051 C   0  0  1  0  0  0
  193.1233  210.3952  257.1113 C   0  0  0  0  0  0
  192.5990  209.9179  255.9765 N   0  0  0  0  0  0
  193.3281  209.7114  254.7263 C   0  0  1  0  0  0
  192.8825  208.3693  254.1095 C   0  0  0  0  0  0
  193.5572  207.9514  253.0342 N   0  0  0  0  0  0
  184.9498  211.5123  264.8331 C   0  0  0  0  0  0
  185.9267  210.3572  262.9981 O   0  0  0  0  0  0
  188.8216  209.1530  263.9554 C   0  0  0  0  0  0
  190.4015  208.5918  263.2483 S   0  0  0  0  0  0
  189.6211  211.5703  265.9027 O   0  0  0  0  0  0
  191.4709  214.0805  264.9602 C   0  0  0  0  0  0
  193.7951  211.8599  263.3899 O   0  0  0  0  0  0
  193.2333  214.5499  260.1466 C   0  0  0  0  0  0
  191.0765  211.9933  260.6128 O   0  0  0  0  0  0
  191.7523  209.2756  259.0781 C   0  0  0  0  0  0
  193.2958  206.7485  252.2511 C   0  0  1  0  0  0
  193.7010  207.0429  250.7927 C   0  0  0  0  0  0
  193.7662  206.0063  249.9552 N   0  0  0  0  0  0
  194.4246  206.0179  248.6411 C   0  0  1  0  0  0
  195.6854  205.1232  248.6476 C   0  0  0  0  0  0
  194.3038  210.7309  257.2344 O   0  0  0  0  0  0
  191.9571  207.7414  254.6299 O   0  0  0  0  0  0
  194.0976  205.5862  252.8748 C   0  0  0  0  0  0
  193.9649  208.1980  250.4576 O   0  0  0  0  0  0
  196.5576  205.2939  247.6648 N   0  0  0  0  0  0
  195.8537  204.2392  249.4789 O   0  0  0  0  0  0
  193.4328  205.5154  247.5691 C   0  0  0  0  0  0
  192.3322  206.5259  247.2068 C   0  0  0  0  0  0
  193.0831  210.9421  253.8124 C   0  0  0  0  0  0
  194.0609  211.0696  252.6298 C   0  0  0  0  0  0
  193.8585  212.3264  251.7704 C   0  0  0  0  0  0
  194.9418  212.4727  250.7812 N   0  0  0  0  0  0
  195.0576  213.4206  249.8303 C   0  0  0  0  0  0
  194.1151  214.3582  249.6439 N   0  0  0  0  0  0
  196.1452  213.4346  249.0497 N   0  3  0  0  0  0
  191.2696  205.8949  246.2931 C   0  0  0  0  0  0
  190.3535  206.8869  245.7062 N   0  0  0  0  0  0
  189.7517  206.8309  244.4986 C   0  0  0  0  0  0
  188.9271  207.8228  244.1400 N   0  3  0  0  0  0
  189.9470  205.8180  243.6369 N   0  0  0  0  0  0
  192.0761  207.8964  258.4537 C   0  0  0  0  0  0
  191.2842  206.7278  259.0699 C   0  0  0  0  0  0
  189.9112  206.6496  258.5367 N   0  0  0  0  0  0
  188.7561  207.0759  259.0741 C   0  0  0  0  0  0
  188.6721  207.5755  260.3102 N   0  0  0  0  0  0
  187.6459  207.0027  258.3351 N   0  3  0  0  0  0
  192.0629  215.5164  260.3451 C   0  0  0  0  0  0
  190.7921  215.2202  259.8383 C   0  0  0  0  0  0
  189.7199  216.0909  260.0646 C   0  0  0  0  0  0
  189.9249  217.2754  260.7751 C   0  0  0  0  0  0
  191.1913  217.5791  261.2723 C   0  0  0  0  0  0
  192.2551  216.7046  261.0575 C   0  0  0  0  0  0
  188.4172  215.8017  259.5576 N   0  0  0  0  0  0
  187.6680  214.7209  259.8003 C   0  0  0  0  0  0
  186.4684  214.6528  259.2586 N   0  3  0  0  0  0
  188.0371  213.7067  260.5670 N   0  0  0  0  0  0
  190.1828  206.5734  263.0844 S   0  0  0  0  0  0
  190.5268  205.9519  264.7395 C   0  0  0  0  0  0
  190.4045  204.4256  264.8536 C   0  0  0  0  0  0
  190.4748  203.8212  266.2829 C   0  0  2  0  0  0
  190.5912  202.2926  266.1521 N   0  3  0  0  0  0
  189.2216  204.1303  267.1505 C   0  0  0  0  0  0
  188.2928  203.2951  267.2497 O   0  0  0  0  0  0
  189.2091  205.2425  267.7242 O   0  5  0  0  0  0
  187.4897  211.5291  265.4802 H   0  0  0  0  0  0
  188.5282  211.0218  262.9047 H   0  0  0  0  0  0
  190.6482  211.7945  262.9165 H   0  0  0  0  0  0
  192.2053  212.0897  265.2625 H   0  0  0  0  0  0
  191.7616  214.0067  262.3221 H   0  0  0  0  0  0
  194.1196  212.7839  261.0251 H   0  0  0  0  0  0
  193.7576  211.7195  258.9349 H   0  0  0  0  0  0
  191.2592  211.0339  257.9109 H   0  0  0  0  0  0
  191.6582  209.5462  255.9641 H   0  0  0  0  0  0
  194.3944  209.6280  254.9492 H   0  0  0  0  0  0
  194.2643  208.5368  252.6030 H   0  0  0  0  0  0
  184.7295  212.5060  264.4449 H   0  0  0  0  0  0
  184.0654  210.8917  264.6911 H   0  0  0  0  0  0
  185.1527  211.5812  265.9006 H   0  0  0  0  0  0
  188.7725  208.7769  264.9760 H   0  0  0  0  0  0
  188.0165  208.6618  263.4062 H   0  0  0  0  0  0
  192.3444  214.5131  265.4462 H   0  0  0  0  0  0
  191.1455  214.7626  264.1749 H   0  0  0  0  0  0
  190.6869  214.0467  265.7164 H   0  0  0  0  0  0
  194.1529  215.0515  260.4530 H   0  0  0  0  0  0
  193.3793  214.3782  259.0785 H   0  0  0  0  0  0
  192.2143  209.2778  260.0668 H   0  0  0  0  0  0
  190.6841  209.3573  259.2843 H   0  0  0  0  0  0
  192.2277  206.5193  252.2619 H   0  0  0  0  0  0
  193.4785  205.0929  250.3022 H   0  0  0  0  0  0
  194.7498  207.0281  248.3861 H   0  0  0  0  0  0
  193.9472  204.6454  252.3510 H   0  0  0  0  0  0
  195.1693  205.7896  252.8585 H   0  0  0  0  0  0
  193.8040  205.4208  253.9115 H   0  0  0  0  0  0
  196.4370  206.0160  246.9748 H   0  0  0  0  0  0
  197.3638  204.6936  247.6397 H   0  0  0  0  0  0
  193.0004  204.5728  247.9013 H   0  0  0  0  0  0
  193.9786  205.2841  246.6519 H   0  0  0  0  0  0
  192.7365  207.4521  246.7945 H   0  0  0  0  0  0
  191.8566  206.8091  248.1457 H   0  0  0  0  0  0
  192.0530  210.9395  253.4502 H   0  0  0  0  0  0
  193.1885  211.8462  254.4139 H   0  0  0  0  0  0
  195.0980  210.9634  252.9524 H   0  0  0  0  0  0
  193.8606  210.2356  251.9611 H   0  0  0  0  0  0
  192.9570  212.1812  251.1731 H   0  0  0  0  0  0
  193.7012  213.2239  252.3694 H   0  0  0  0  0  0
  195.6368  211.7310  250.8054 H   0  0  0  0  0  0
  194.2150  215.0615  248.9272 H   0  0  0  0  0  0
  193.2859  214.3635  250.2194 H   0  0  0  0  0  0
  196.2517  214.1230  248.3198 H   0  0  0  0  0  0
  190.6088  205.3139  246.9345 H   0  0  0  0  0  0
  191.7065  205.2013  245.5751 H   0  0  0  0  0  0
  190.1302  207.6626  246.3152 H   0  0  0  0  0  0
  188.7613  208.6035  244.7584 H   0  0  0  0  0  0
  189.4803  205.7984  242.7415 H   0  0  0  0  0  0
  190.5896  205.0702  243.8559 H   0  0  0  0  0  0
  191.8009  207.9283  257.3999 H   0  0  0  0  0  0
  193.1462  207.6824  258.4644 H   0  0  0  0  0  0
  191.8131  205.7866  258.9534 H   0  0  0  0  0  0
  191.2117  206.8834  260.1456 H   0  0  0  0  0  0
  189.8471  206.2468  257.6104 H   0  0  0  0  0  0
  187.8354  208.0751  260.6008 H   0  0  0  0  0  0
  189.4801  207.6019  260.9173 H   0  0  0  0  0  0
  186.7753  207.3688  258.6937 H   0  0  0  0  0  0
  190.6381  214.3099  259.2743 H   0  0  0  0  0  0
  189.1118  217.9661  260.9552 H   0  0  0  0  0  0
  191.3491  218.4918  261.8284 H   0  0  0  0  0  0
  193.2258  216.9544  261.4617 H   0  0  0  0  0  0
  187.9458  216.5397  259.0581 H   0  0  0  0  0  0
  185.7918  213.9945  259.6406 H   0  0  0  0  0  0
  187.4580  212.8728  260.6078 H   0  0  0  0  0  0
  188.9709  213.6772  260.9445 H   0  0  0  0  0  0
  191.5363  206.2665  264.9979 H   0  0  0  0  0  0
  189.8375  206.4557  265.4168 H   0  0  0  0  0  0
  189.5039  204.0901  264.3486 H   0  0  0  0  0  0
  191.2163  204.0175  264.2565 H   0  0  0  0  0  0
  191.3954  204.0940  266.7992 H   0  0  0  0  0  0
  190.7393  201.8719  267.0578 H   0  0  0  0  0  0
  189.7485  201.9163  265.7419 H   0  0  0  0  0  0
  188.4658  207.8117  243.2424 H   0  0  0  0  0  0
  196.9336  212.8248  249.2398 H   0  0  0  0  0  0
  187.6620  206.5419  257.4320 H   0  0  0  0  0  0
  186.1619  215.3325  258.5810 H   0  0  0  0  0  0
  191.3692  202.0592  265.5508 H   0  0  0  0  0  0
  1  2  1  0  0  0
  1 18  1  0  0  0
  1 19  2  0  0  0
  2  3  1  0  0  0
  2 77  1  0  0  0
  3  4  1  0  0  0
  3 20  1  0  0  0
  3 78  1  0  0  0
  4  5  1  0  0  0
  4 22  2  0  0  0
  5  6  1  0  0  0
  5 79  1  0  0  0
  6  7  1  0  0  0
  6 23  1  0  0  0
  6 80  1  0  0  0
  7  8  1  0  0  0
  7 24  2  0  0  0
  8  9  1  0  0  0
  8 81  1  0  0  0
  9 10  1  0  0  0
  9 25  1  0  0  0
  9 82  1  0  0  0
 10 11  1  0  0  0
 10 26  2  0  0  0
 11 12  1  0  0  0
 11 83  1  0  0  0
 12 13  1  0  0  0
 12 27  1  0  0  0
 12 84  1  0  0  0
 13 14  1  0  0  0
 13 33  2  0  0  0
 14 15  1  0  0  0
 14 85  1  0  0  0
 15 16  1  0  0  0
 15 41  1  0  0  0
 15 86  1  0  0  0
 16 17  1  0  0  0
 16 34  2  0  0  0
 17 28  1  0  0  0
 17 87  1  0  0  0
 18 88  1  0  0  0
 18 89  1  0  0  0
 18 90  1  0  0  0
 20 21  1  0  0  0
 20 91  1  0  0  0
 20 92  1  0  0  0
 21 69  1  0  0  0
 23 93  1  0  0  0
 23 94  1  0  0  0
 23 95  1  0  0  0
 25 59  1  0  0  0
 25 96  1  0  0  0
 25 97  1  0  0  0
 27 53  1  0  0  0
 27 98  1  0  0  0
 27 99  1  0  0  0
 28 29  1  0  0  0
 28 35  1  0  0  0
 28100  1  0  0  0
 29 30  1  0  0  0
 29 36  2  0  0  0
 30 31  1  0  0  0
 30101  1  0  0  0
 31 32  1  0  0  0
 31 39  1  0  0  0
 31102  1  0  0  0
 32 37  1  0  0  0
 32 38  2  0  0  0
 35103  1  0  0  0
 35104  1  0  0  0
 35105  1  0  0  0
 37106  1  0  0  0
 37107  1  0  0  0
 39 40  1  0  0  0
 39108  1  0  0  0
 39109  1  0  0  0
 40 48  1  0  0  0
 40110  1  0  0  0
 40111  1  0  0  0
 41 42  1  0  0  0
 41112  1  0  0  0
 41113  1  0  0  0
 42 43  1  0  0  0
 42114  1  0  0  0
 42115  1  0  0  0
 43 44  1  0  0  0
 43116  1  0  0  0
 43117  1  0  0  0
 44 45  1  0  0  0
 44118  1  0  0  0
 45 46  1  0  0  0
 45 47  2  0  0  0
 46119  1  0  0  0
 46120  1  0  0  0
 47121  1  0  0  0
 47152  1  0  0  0
 48 49  1  0  0  0
 48122  1  0  0  0
 48123  1  0  0  0
 49 50  1  0  0  0
 49124  1  0  0  0
 50 51  2  0  0  0
 50 52  1  0  0  0
 51125  1  0  0  0
 51151  1  0  0  0
 52126  1  0  0  0
 52127  1  0  0  0
 53 54  1  0  0  0
 53128  1  0  0  0
 53129  1  0  0  0
 54 55  1  0  0  0
 54130  1  0  0  0
 54131  1  0  0  0
 55 56  1  0  0  0
 55132  1  0  0  0
 56 57  1  0  0  0
 56 58  2  0  0  0
 57133  1  0  0  0
 57134  1  0  0  0
 58135  1  0  0  0
 58153  1  0  0  0
 59 60  2  0  0  0
 59 64  1  0  0  0
 60 61  1  0  0  0
 60136  1  0  0  0
 61 62  2  0  0  0
 61 65  1  0  0  0
 62 63  1  0  0  0
 62137  1  0  0  0
 63 64  2  0  0  0
 63138  1  0  0  0
 64139  1  0  0  0
 65 66  1  0  0  0
 65140  1  0  0  0
 66 67  2  0  0  0
 66 68  1  0  0  0
 67141  1  0  0  0
 67154  1  0  0  0
 68142  1  0  0  0
 68143  1  0  0  0
 69 70  1  0  0  0
 70 71  1  0  0  0
 70144  1  0  0  0
 70145  1  0  0  0
 71 72  1  0  0  0
 71146  1  0  0  0
 71147  1  0  0  0
 72 74  1  0  0  0
 72 73  1  0  0  0
 72148  1  0  0  0
 73149  1  0  0  0
 73150  1  0  0  0
 73155  1  0  0  0
 74 75  2  0  0  0
 74 76  1  0  0  0
M  CHG  6  47   1  51   1  58   1  67   1  73   1  76  -1
M  END
> <s_m_entry_id>
20

> <s_m_entry_name>
STS005-ligand-20230714.69

> <s_m_Source_Path>
D:\xubinbin\STS005

> <s_m_Source_File>
prime_mmgbsa_all-20230714-out.maegz

> <i_m_Source_File_Index>
20

> <s_psp_Prime_MMGBSA_Input_Structure_Hash>
b5f36597ebe6ee79afe4aa08ac6c712a47d32b918ab9f7b063cb59a8

> <i_psp_number_heavy_atoms>
76

> <b_psp_distorted_structure>
1

> <i_psp_model_num>
0

> <r_psp_Prime_Coulomb>
-43274.7660281246

> <r_psp_Prime_Covalent>
7577.04030740854

> <r_psp_Prime_vdW>
-6889.48228552821

> <r_psp_Prime_Lipo>
-3894.0331903302

> <r_psp_Prime_Solv_GB>
-13033.7080665263

> <r_psp_Prime_Energy>
-60599.7640311412

> <s_psp_Prime_Energy_Force_Field>
S-OPLS

> <s_psp_Prime_Energy_Solvent_Model>
VSGB2.1

> <r_psp_Prime_Bond_Covalent>
955.956825053848

> <r_psp_Prime_Bond_SGB>
111334.185535422

> <r_psp_Prime_Angle_Covalent>
3209.92413853776

> <r_psp_Prime_Angle_SGB>
-44073.1187894924

> <r_psp_Prime_Torsion_Covalent>
3411.15934381694

> <r_psp_Prime_NB14_LJ>
7965.68707135962

> <r_psp_Prime_NB14_Lipo>
0

> <r_psp_Prime_NB14_Elec>
48381.3116958374

> <r_psp_Prime_NB14_SGB>
-41175.7118483307

> <r_psp_Prime_NBShort_LJ>
-14089.1393895972

> <r_psp_Prime_NBShort_Lipo>
-3894.0331903302

> <r_psp_Prime_NBShort_Elec>
-96012.9756320139

> <r_psp_Prime_NBShort_SGB>
45227.9972385034

> <r_psp_Prime_NBLong_LJ>
-766.029967290642

> <r_psp_Prime_NBLong_Lipo>
0

> <r_psp_Prime_NBLong_Elec>
4356.89790805187

> <r_psp_Prime_NBLong_SGB>
-4171.41528444221

> <r_psp_Prime_Self_SGB>
-80175.6449181867

> <r_psp_Prime_Hbond>
-776.746677894608

> <r_psp_Prime_Packing>
-136.00913152471

> <r_psp_Prime_SelfCont>
-172.058958621051

> <i_lp_mmshare_version>
54117

> <s_epik_input>
Tz1DKFtPSF0pW0NAQEhdKFtOSDJdKVtDSDJdW0NIMl1TU1tDSDJdW0NAQEhdKFtOSF1DKD1PKVtDSDNdKUMoPU8pW05IXVtDQEhdKFtDSDNdKUMoPU8pW05IXVtDQEhdKFtDSDJdYzFbY0hdYyhbY0hdW2NIXVtjSF0xKVtOSF0vQyg9Ti9bSF0pW05IMl0pQyg9TylbTkhdW0NASF0oW0NIMl1bQ0gyXVtDSDJdW05IXS9DKFtOSDJdKT1OL1tIXSlDKD1PKVtOSF1bQ0BIXShbQ0gyXVtDSDJdW0NIMl1bTkhdL0MoW05IMl0pPU4vW0hdKUMoPU8pW05IXVtDQEhdKFtDSDNdKUMoPU8pW05IXVtDQEBIXShDKD1PKVtOSDJdKVtDSDJdW0NIMl1bQ0gyXVtOSF0vQyg9Ti9bSF0pW05IMl0=

> <s_epik_cmdline>
J2VwaWtfcHl0aG9uJywgJy1waCcsICc3LjAnLCAnLXRuJywgJzgnLCAnLW1hJywgJzUwMCcsICctaW1hZScsICc8aW5maWxlLm1hZT4nLCAnLW9tYWUnLCAnPG91dGZpbGUubWFlPic=

> <r_epik_Ionization_Penalty>
  0.0023

> <r_epik_Ionization_Penalty_Charging>
  0.0023

> <r_epik_Ionization_Penalty_Neutral>
  0.0000

> <r_epik_State_Penalty>
  0.0015

> <r_epik_Charging_Adjusted_Penalty>
0.00378136206634439

> <i_epik_Tot_Q>
4

> <i_epik_Tot_abs_Q>
6

> <s_epik_Chemistry_Notes>
This compound has an imine and may undergo hydrolysis.

> <i_f3d_flags>
0

> <s_lp_Force_Field>
S-OPLS

> <r_lp_Energy>
-0.467226

> <b_lp_Chiralities_Consistent>
1

> <s_lp_Variant>
104-1

> <s_i_glide_gridfile>
glide-grid_D-site

> <i_i_glide_lignum>
139

> <i_i_glide_rotatable_bonds>
47

> <r_i_docking_score>
-7.63730941006165

> <r_i_glide_ligand_efficiency>
-0.100490913290285

> <r_i_glide_ligand_efficiency_sa>
-0.425661779903826

> <r_i_glide_ligand_efficiency_ln>
-1.4326939508198

> <r_glide_XP_GScore>
-7.63880941006165

> <r_i_glide_gscore>
-7.63880941006165

> <r_i_glide_evdw>
-55.7353630065918

> <r_i_glide_ecoul>
-8.33244895935059

> <r_i_glide_energy>
-64.0678119659424

> <r_i_glide_einternal>
13.0039386749268

> <r_i_glide_emodel>
-88.7680511474609

> <r_glide_XP_HBond>
-2.53642359905349

> <i_i_glide_confnum>
1

> <i_i_glide_posenum>
2

> <r_i_glide_eff_state_penalty>
0.0015

> <i_glide_XP_PoseRank>
1

> <s_psp_MMGBSA_moved_residues>


> <r_psp_MMGBSA_dG_Bind>
-55.6404999574152

> <r_psp_MMGBSA_dG_Bind_Coulomb>
-665.475321909435

> <r_psp_MMGBSA_dG_Bind_Covalent>
10.8730919276941

> <r_psp_MMGBSA_dG_Bind_Hbond>
-8.9239421197102

> <r_psp_MMGBSA_dG_Bind_Lipo>
-7.41361351159958

> <r_psp_MMGBSA_dG_Bind_Packing>
0

> <r_psp_MMGBSA_dG_Bind_SelfCont>
0

> <r_psp_MMGBSA_dG_Bind_Solv_GB>
688.257331288569

> <r_psp_MMGBSA_dG_Bind_vdW>
-72.9580456329231

> <r_psp_Lig_Strain_Energy>
24.839835756774

> <r_psp_Lig_Strain_Coulomb>
-11.7420551658923

> <r_psp_Lig_Strain_Covalent>
10.8730919276942

> <r_psp_Lig_Strain_Hbond>
0

> <r_psp_Lig_Strain_Lipo>
3.85051872095547

> <r_psp_Lig_Strain_Packing>
0

> <r_psp_Lig_Strain_SelfCont>
0

> <r_psp_Lig_Strain_Solv_GB>
7.49521437989006

> <r_psp_Lig_Strain_vdW>
14.3630658941266

> <r_psp_Ligand_Energy>
-337.250663025777

> <r_psp_Ligand_Coulomb>
-138.999066970173

> <r_psp_Ligand_Covalent>
30.415039483077

> <r_psp_Ligand_Hbond>
0

> <r_psp_Ligand_Lipo>
-9.57081475679446

> <r_psp_Ligand_Packing>
0

> <r_psp_Ligand_SelfCont>
0

> <r_psp_Ligand_Solv_GB>
-225.621180851379

> <r_psp_Ligand_vdW>
6.52536006949309

> <r_psp_Complex_Energy>
-60599.7640311412

> <r_psp_Complex_Coulomb>
-43274.7660281246

> <r_psp_Complex_Covalent>
7577.04030740854

> <r_psp_Complex_Hbond>
-776.746677894608

> <r_psp_Complex_Lipo>
-3894.0331903302

> <r_psp_Complex_Packing>
-136.00913152471

> <r_psp_Complex_SelfCont>
-172.058958621051

> <r_psp_Complex_Solv_GB>
-13033.7080665263

> <r_psp_Complex_vdW>
-6889.48228552821

> <r_psp_Receptor_Energy>
-60206.872868158

> <r_psp_Receptor_Coulomb>
-42470.291639245

> <r_psp_Receptor_Covalent>
7535.75217599777

> <r_psp_Receptor_Hbond>
-767.822735774897

> <r_psp_Receptor_Lipo>
-3877.04876206181

> <r_psp_Receptor_Packing>
-136.00913152471

> <r_psp_Receptor_SelfCont>
-172.058958621051

> <r_psp_Receptor_Solv_GB>
-13496.3442169635

> <r_psp_Receptor_vdW>
-6823.04959996478

> <r_psp_MMGBSA_dG_Bind(NS)>
-80.4803357141936

> <r_psp_MMGBSA_dG_Bind(NS)_Coulomb>
-653.73326674354

> <r_psp_MMGBSA_dG_Bind(NS)_Covalent>
-9.09494701772928e-13

> <r_psp_MMGBSA_dG_Bind(NS)_Hbond>
-8.9239421197102

> <r_psp_MMGBSA_dG_Bind(NS)_Lipo>
-11.2641322325549

> <r_psp_MMGBSA_dG_Bind(NS)_Packing>
0

> <r_psp_MMGBSA_dG_Bind(NS)_SelfCont>
0

> <r_psp_MMGBSA_dG_Bind(NS)_Solv_GB>
680.762116908678

> <r_psp_MMGBSA_dG_Bind(NS)_vdW>
-87.3211115270497

> <r_psp_Rec_Strain_Energy>
0

> <r_psp_Rec_Strain_Coulomb>
0

> <r_psp_Rec_Strain_Covalent>
0

> <r_psp_Rec_Strain_Hbond>
0

> <r_psp_Rec_Strain_Lipo>
0

> <r_psp_Rec_Strain_Packing>
0

> <r_psp_Rec_Strain_SelfCont>
0

> <r_psp_Rec_Strain_Solv_GB>
0

> <r_psp_Rec_Strain_vdW>
0

> <r_psp_Prime_MMGBSA_ligand_efficiency>
-0.732111841544936

> <r_psp_Prime_MMGBSA_ligand_efficiency_sa>
-1.0981677623174

> <r_psp_Prime_MMGBSA_ligand_efficiency_ln>
-10.4376820984309

> <Name>
104

> <s_m_subgroup_title>
prime_mmgbsa_all-20230714-out

> <s_m_subgroupid>
prime_mmgbsa_all-20230714-out

> <b_m_subgroup_collapsed>
0

$$$$
