STS005_prime_MMGBSA_result_42
                    3D
 Schrodinger Suite 2021-3.
151151  0  0  1  0            999 V2000
  186.2152  214.8343  252.6260 C   0  0  0  0  0  0
  187.2754  214.0793  252.9225 N   0  0  0  0  0  0
  188.6367  214.3083  252.4541 C   0  0  1  0  0  0
  189.5658  213.4772  253.3532 C   0  0  0  0  0  0
  190.8495  213.4558  252.9802 N   0  0  0  0  0  0
  192.0034  212.8068  253.6054 C   0  0  1  0  0  0
  192.6997  213.7216  254.6118 C   0  0  0  0  0  0
  194.0285  213.5744  254.6693 N   0  0  0  0  0  0
  194.8685  214.0710  255.7529 C   0  0  1  0  0  0
  194.6777  213.1058  256.9412 C   0  0  0  0  0  0
  193.6180  213.3133  257.7300 N   0  0  0  0  0  0
  193.3359  212.6119  258.9789 C   0  0  1  0  0  0
  192.0939  213.2348  259.6214 C   0  0  0  0  0  0
  191.8805  212.9098  260.8975 N   0  0  0  0  0  0
  190.5884  212.9637  261.5699 C   0  0  1  0  0  0
  190.4713  211.6594  262.3616 C   0  0  0  0  0  0
  189.2322  211.2246  262.6322 N   0  0  0  0  0  0
  184.9140  214.5218  253.3430 C   0  0  0  0  0  0
  186.2613  215.7614  251.8212 O   0  0  0  0  0  0
  188.7960  213.9452  250.9549 C   0  0  0  0  0  0
  189.9948  214.9758  250.0586 S   0  0  0  0  0  0
  189.0904  212.8576  254.3077 O   0  0  0  0  0  0
  191.7134  211.4289  254.2561 C   0  0  0  0  0  0
  192.0519  214.4599  255.3531 O   0  0  0  0  0  0
  196.3521  214.2228  255.2868 C   0  0  0  0  0  0
  197.2112  215.1409  256.1637 C   0  0  0  0  0  0
  195.4854  212.1951  257.1125 O   0  0  0  0  0  0
  193.0855  211.1080  258.7368 C   0  0  0  0  0  0
  188.8918  210.0414  263.4370 C   0  0  1  0  0  0
  189.4109  208.7097  262.8583 C   0  0  0  0  0  0
  189.6496  208.6919  261.5441 N   0  0  0  0  0  0
  190.1402  207.5340  260.7880 C   0  0  1  0  0  0
  189.0795  206.4185  260.5994 C   0  0  0  0  0  0
  191.3366  213.9305  258.9460 O   0  0  0  0  0  0
  191.5046  211.0941  262.7262 O   0  0  0  0  0  0
  189.3435  210.2375  264.8955 C   0  0  0  0  0  0
  189.5678  207.7402  263.5952 O   0  0  0  0  0  0
  187.8046  206.7468  260.7161 N   0  0  0  0  0  0
  189.4055  205.2711  260.3312 O   0  0  0  0  0  0
  190.6674  208.0916  259.4472 C   0  0  0  0  0  0
  191.4089  207.0908  258.5388 C   0  0  0  0  0  0
  190.4972  214.1559  262.5435 C   0  0  0  0  0  0
  190.6656  215.5385  261.8962 C   0  0  0  0  0  0
  190.1764  216.6544  262.8361 C   0  0  0  0  0  0
  190.2499  217.9907  262.2302 N   0  0  0  0  0  0
  189.4106  218.5544  261.3417 C   0  0  0  0  0  0
  188.3578  217.8971  260.8303 N   0  0  0  0  0  0
  189.6392  219.8194  260.9687 N   0  3  0  0  0  0
  191.6975  207.6405  257.1304 C   0  0  0  0  0  0
  190.4524  207.7840  256.3519 N   0  0  0  0  0  0
  190.1732  207.3258  255.1193 C   0  0  0  0  0  0
  188.9478  207.5331  254.6236 N   0  3  0  0  0  0
  191.0738  206.6749  254.3670 N   0  0  0  0  0  0
  191.1227  210.3104  253.3744 C   0  0  0  0  0  0
  191.6722  208.8554  251.4092 N   0  0  0  0  0  0
  191.6729  210.2294  251.9387 C   0  0  0  0  0  0
  192.7070  207.9931  251.4993 C   0  0  0  0  0  0
  193.8425  208.3094  252.1398 N   0  3  0  0  0  0
  192.6072  206.7872  250.9357 N   0  0  0  0  0  0
  197.2373  214.9908  257.5531 C   0  0  0  0  0  0
  197.9975  215.8357  258.3551 C   0  0  0  0  0  0
  198.7942  216.8190  257.7686 C   0  0  0  0  0  0
  198.8062  216.9622  256.3793 C   0  0  0  0  0  0
  198.0147  216.1303  255.5821 C   0  0  0  0  0  0
  197.9892  215.6356  259.7641 N   0  0  0  0  0  0
  196.9341  215.7021  260.5854 C   0  0  0  0  0  0
  197.0960  215.3760  261.8508 N   0  0  0  0  0  0
  195.7159  216.0779  260.2224 N   0  3  0  0  0  0
  190.9124  213.7199  248.7344 S   0  0  0  0  0  0
  192.2114  212.8875  249.7049 C   0  0  0  0  0  0
  193.6405  213.4823  249.8178 C   0  0  2  0  0  0
  194.4565  212.5967  250.6856 N   0  0  0  0  0  0
  193.6234  214.9759  250.3371 C   0  0  0  0  0  0
  194.2276  215.7913  249.6021 O   0  0  0  0  0  0
  193.0684  215.1850  251.4426 O   0  5  0  0  0  0
  187.2387  213.3560  253.6336 H   0  0  0  0  0  0
  188.8750  215.3624  252.6104 H   0  0  0  0  0  0
  191.1033  214.0670  252.2125 H   0  0  0  0  0  0
  192.7194  212.6647  252.7987 H   0  0  0  0  0  0
  194.4717  212.9435  254.0176 H   0  0  0  0  0  0
  194.5020  215.0597  256.0400 H   0  0  0  0  0  0
  192.9179  214.0075  257.4778 H   0  0  0  0  0  0
  194.1882  212.7450  259.6481 H   0  0  0  0  0  0
  192.5296  212.2954  261.3751 H   0  0  0  0  0  0
  189.7812  213.0102  260.8340 H   0  0  0  0  0  0
  188.4467  211.7033  262.2105 H   0  0  0  0  0  0
  184.1867  214.1042  252.6475 H   0  0  0  0  0  0
  185.0648  213.8126  254.1562 H   0  0  0  0  0  0
  184.4983  215.4374  253.7615 H   0  0  0  0  0  0
  187.8478  214.0372  250.4251 H   0  0  0  0  0  0
  189.0835  212.8982  250.8591 H   0  0  0  0  0  0
  192.6564  211.0481  254.6528 H   0  0  0  0  0  0
  191.0850  211.5590  255.1394 H   0  0  0  0  0  0
  196.8476  213.2540  255.1947 H   0  0  0  0  0  0
  196.3457  214.6359  254.2764 H   0  0  0  0  0  0
  192.8852  210.5951  259.6774 H   0  0  0  0  0  0
  192.2291  210.9535  258.0795 H   0  0  0  0  0  0
  193.9460  210.6096  258.2919 H   0  0  0  0  0  0
  187.8037  209.9615  263.4306 H   0  0  0  0  0  0
  189.4006  209.5148  261.0139 H   0  0  0  0  0  0
  190.9698  207.0930  261.3438 H   0  0  0  0  0  0
  189.0690  209.3676  265.4852 H   0  0  0  0  0  0
  190.4267  210.3315  264.9789 H   0  0  0  0  0  0
  188.8848  211.1138  265.3516 H   0  0  0  0  0  0
  187.5530  207.7011  260.9133 H   0  0  0  0  0  0
  187.0843  206.0543  260.5714 H   0  0  0  0  0  0
  189.8212  208.5250  258.9122 H   0  0  0  0  0  0
  191.3467  208.9151  259.6581 H   0  0  0  0  0  0
  192.3142  206.6978  259.0027 H   0  0  0  0  0  0
  190.7556  206.2268  258.4215 H   0  0  0  0  0  0
  189.5263  214.1111  263.0402 H   0  0  0  0  0  0
  191.2384  214.0462  263.3386 H   0  0  0  0  0  0
  191.7337  215.6722  261.7159 H   0  0  0  0  0  0
  190.1895  215.5969  260.9159 H   0  0  0  0  0  0
  189.1904  216.4509  263.2547 H   0  0  0  0  0  0
  190.8536  216.7075  263.6886 H   0  0  0  0  0  0
  190.9971  218.5741  262.5974 H   0  0  0  0  0  0
  187.7382  218.3383  260.1666 H   0  0  0  0  0  0
  188.1791  216.9405  261.1000 H   0  0  0  0  0  0
  189.0414  220.2847  260.3015 H   0  0  0  0  0  0
  192.0703  208.6601  257.2236 H   0  0  0  0  0  0
  192.4934  207.0833  256.6367 H   0  0  0  0  0  0
  189.7089  208.2618  256.8418 H   0  0  0  0  0  0
  188.7261  207.2014  253.6886 H   0  0  0  0  0  0
  190.8257  206.4098  253.4183 H   0  0  0  0  0  0
  192.0119  206.5105  254.7021 H   0  0  0  0  0  0
  191.2143  209.3612  253.8945 H   0  0  0  0  0  0
  190.0498  210.4984  253.3020 H   0  0  0  0  0  0
  190.8068  208.5342  250.9856 H   0  0  0  0  0  0
  190.9726  210.7502  251.2877 H   0  0  0  0  0  0
  192.6375  210.7164  251.8048 H   0  0  0  0  0  0
  194.6636  207.7154  252.1086 H   0  0  0  0  0  0
  193.3504  206.1051  250.9885 H   0  0  0  0  0  0
  191.7406  206.5115  250.4774 H   0  0  0  0  0  0
  196.6921  214.1967  258.0343 H   0  0  0  0  0  0
  199.4144  217.4607  258.3763 H   0  0  0  0  0  0
  199.4308  217.7180  255.9211 H   0  0  0  0  0  0
  198.0342  216.2592  254.5092 H   0  0  0  0  0  0
  198.8800  215.4287  260.1967 H   0  0  0  0  0  0
  196.4135  215.6600  262.5363 H   0  0  0  0  0  0
  197.9748  215.0074  262.1855 H   0  0  0  0  0  0
  194.9154  215.8057  260.7703 H   0  0  0  0  0  0
  192.3097  211.8921  249.2717 H   0  0  0  0  0  0
  191.8079  212.7275  250.6948 H   0  0  0  0  0  0
  194.0721  213.4914  248.8139 H   0  0  0  0  0  0
  194.7053  211.7412  250.2007 H   0  0  0  0  0  0
  195.3585  213.0342  250.8314 H   0  0  0  0  0  0
  188.2235  207.9720  255.1732 H   0  0  0  0  0  0
  190.4066  220.3347  261.3803 H   0  0  0  0  0  0
  193.9615  209.2353  252.5239 H   0  0  0  0  0  0
  195.5968  216.6216  259.3813 H   0  0  0  0  0  0
  1  2  1  0  0  0
  1 18  1  0  0  0
  1 19  2  0  0  0
  2  3  1  0  0  0
  2 76  1  0  0  0
  3  4  1  0  0  0
  3 20  1  0  0  0
  3 77  1  0  0  0
  4  5  1  0  0  0
  4 22  2  0  0  0
  5  6  1  0  0  0
  5 78  1  0  0  0
  6  7  1  0  0  0
  6 23  1  0  0  0
  6 79  1  0  0  0
  7  8  1  0  0  0
  7 24  2  0  0  0
  8  9  1  0  0  0
  8 80  1  0  0  0
  9 10  1  0  0  0
  9 25  1  0  0  0
  9 81  1  0  0  0
 10 11  1  0  0  0
 10 27  2  0  0  0
 11 12  1  0  0  0
 11 82  1  0  0  0
 12 13  1  0  0  0
 12 28  1  0  0  0
 12 83  1  0  0  0
 13 14  1  0  0  0
 13 34  2  0  0  0
 14 15  1  0  0  0
 14 84  1  0  0  0
 15 16  1  0  0  0
 15 42  1  0  0  0
 15 85  1  0  0  0
 16 17  1  0  0  0
 16 35  2  0  0  0
 17 29  1  0  0  0
 17 86  1  0  0  0
 18 87  1  0  0  0
 18 88  1  0  0  0
 18 89  1  0  0  0
 20 21  1  0  0  0
 20 90  1  0  0  0
 20 91  1  0  0  0
 21 69  1  0  0  0
 23 54  1  0  0  0
 23 92  1  0  0  0
 23 93  1  0  0  0
 25 26  1  0  0  0
 25 94  1  0  0  0
 25 95  1  0  0  0
 26 60  2  0  0  0
 26 64  1  0  0  0
 28 96  1  0  0  0
 28 97  1  0  0  0
 28 98  1  0  0  0
 29 30  1  0  0  0
 29 36  1  0  0  0
 29 99  1  0  0  0
 30 31  1  0  0  0
 30 37  2  0  0  0
 31 32  1  0  0  0
 31100  1  0  0  0
 32 33  1  0  0  0
 32 40  1  0  0  0
 32101  1  0  0  0
 33 38  1  0  0  0
 33 39  2  0  0  0
 36102  1  0  0  0
 36103  1  0  0  0
 36104  1  0  0  0
 38105  1  0  0  0
 38106  1  0  0  0
 40 41  1  0  0  0
 40107  1  0  0  0
 40108  1  0  0  0
 41 49  1  0  0  0
 41109  1  0  0  0
 41110  1  0  0  0
 42 43  1  0  0  0
 42111  1  0  0  0
 42112  1  0  0  0
 43 44  1  0  0  0
 43113  1  0  0  0
 43114  1  0  0  0
 44 45  1  0  0  0
 44115  1  0  0  0
 44116  1  0  0  0
 45 46  1  0  0  0
 45117  1  0  0  0
 46 47  1  0  0  0
 46 48  2  0  0  0
 47118  1  0  0  0
 47119  1  0  0  0
 48120  1  0  0  0
 48149  1  0  0  0
 49 50  1  0  0  0
 49121  1  0  0  0
 49122  1  0  0  0
 50 51  1  0  0  0
 50123  1  0  0  0
 51 52  2  0  0  0
 51 53  1  0  0  0
 52124  1  0  0  0
 52148  1  0  0  0
 53125  1  0  0  0
 53126  1  0  0  0
 54 56  1  0  0  0
 54127  1  0  0  0
 54128  1  0  0  0
 55 56  1  0  0  0
 55 57  1  0  0  0
 55129  1  0  0  0
 56130  1  0  0  0
 56131  1  0  0  0
 57 58  2  0  0  0
 57 59  1  0  0  0
 58132  1  0  0  0
 58150  1  0  0  0
 59133  1  0  0  0
 59134  1  0  0  0
 60 61  1  0  0  0
 60135  1  0  0  0
 61 62  2  0  0  0
 61 65  1  0  0  0
 62 63  1  0  0  0
 62136  1  0  0  0
 63 64  2  0  0  0
 63137  1  0  0  0
 64138  1  0  0  0
 65 66  1  0  0  0
 65139  1  0  0  0
 66 67  1  0  0  0
 66 68  2  0  0  0
 67140  1  0  0  0
 67141  1  0  0  0
 68142  1  0  0  0
 68151  1  0  0  0
 69 70  1  0  0  0
 70 71  1  0  0  0
 70143  1  0  0  0
 70144  1  0  0  0
 71 73  1  0  0  0
 71 72  1  0  0  0
 71145  1  0  0  0
 72146  1  0  0  0
 72147  1  0  0  0
 73 74  2  0  0  0
 73 75  1  0  0  0
M  CHG  5  48   1  52   1  58   1  68   1  75  -1
M  END
> <s_m_entry_id>
141

> <s_m_entry_name>
STS005-ligand-20230714.41

> <s_m_Source_Path>
D:\xubinbin\STS005

> <s_m_Source_File>
prime_mmgbsa_all-20230714-out.maegz

> <i_m_Source_File_Index>
141

> <s_psp_Prime_MMGBSA_Input_Structure_Hash>
58a7c7ef3be795438ac7637803da61f72eb53fc61a7d218953c07b24

> <i_psp_number_heavy_atoms>
75

> <b_psp_distorted_structure>
1

> <i_psp_model_num>
0

> <r_psp_Prime_Coulomb>
-43111.4045654037

> <r_psp_Prime_Covalent>
7581.40516041371

> <r_psp_Prime_vdW>
-6868.37929416259

> <r_psp_Prime_Lipo>
-3893.21979350915

> <r_psp_Prime_Solv_GB>
-13177.4655526946

> <r_psp_Prime_Energy>
-60553.4354684199

> <s_psp_Prime_Energy_Force_Field>
S-OPLS

> <s_psp_Prime_Energy_Solvent_Model>
VSGB2.1

> <r_psp_Prime_Bond_Covalent>
956.206747786614

> <r_psp_Prime_Bond_SGB>
111569.133818556

> <r_psp_Prime_Angle_Covalent>
3214.72178967856

> <r_psp_Prime_Angle_SGB>
-44128.6102347627

> <r_psp_Prime_Torsion_Covalent>
3410.47662294854

> <r_psp_Prime_NB14_LJ>
7967.03435214196

> <r_psp_Prime_NB14_Lipo>
0

> <r_psp_Prime_NB14_Elec>
48444.8132920677

> <r_psp_Prime_NB14_SGB>
-41275.7133752528

> <r_psp_Prime_NBShort_LJ>
-14069.8850685007

> <r_psp_Prime_NBShort_Lipo>
-3893.21979350915

> <r_psp_Prime_NBShort_Elec>
-95911.8919096569

> <r_psp_Prime_NBShort_SGB>
45181.7560544139

> <r_psp_Prime_NBLong_LJ>
-765.528577803823

> <r_psp_Prime_NBLong_Lipo>
0

> <r_psp_Prime_NBLong_Elec>
4355.6740521855

> <r_psp_Prime_NBLong_SGB>
-4169.8932350478

> <r_psp_Prime_Self_SGB>
-80354.1385806012

> <r_psp_Prime_Hbond>
-775.485241388963

> <r_psp_Prime_Packing>
-136.827223053649

> <r_psp_Prime_SelfCont>
-172.058958621051

> <i_lp_mmshare_version>
54117

> <s_epik_input>
Tz1DKFtPSF0pW0NAQEhdKFtOSDJdKVtDSDJdU1NbQ0gyXVtDQEBIXShbTkhdQyg9TylbQ0gzXSlDKD1PKVtOSF1bQ0BIXShbQ0gyXVtDSDJdW0NIMl1bTkhdL0MoPU4vW0hdKVtOSDJdKUMoPU8pW05IXVtDQEhdKFtDSDJdYzFbY0hdYyhbY0hdW2NIXVtjSF0xKVtOSF0vQyhbTkgyXSk9Ti9bSF0pQyg9TylbTkhdW0NASF0oW0NIM10pQyg9TylbTkhdW0NASF0oW0NIMl1bQ0gyXVtDSDJdW05IXS9DKFtOSDJdKT1OL1tIXSlDKD1PKVtOSF1bQ0BIXShbQ0gzXSlDKD1PKVtOSF1bQ0BASF0oQyg9TylbTkgyXSlbQ0gyXVtDSDJdW0NIMl1bTkhdL0MoPU4vW0hdKVtOSDJd

> <s_epik_cmdline>
J2VwaWtfcHl0aG9uJywgJy1waCcsICc3LjAnLCAnLXRuJywgJzgnLCAnLW1hJywgJzUwMCcsICctaW1hZScsICc8aW5maWxlLm1hZT4nLCAnLW9tYWUnLCAnPG91dGZpbGUubWFlPic=

> <r_epik_Ionization_Penalty>
  2.0753

> <r_epik_Ionization_Penalty_Charging>
  0.0004

> <r_epik_Ionization_Penalty_Neutral>
  2.0749

> <r_epik_State_Penalty>
  2.2092

> <r_epik_Charging_Adjusted_Penalty>
2.20954818115624

> <i_epik_Tot_Q>
3

> <i_epik_Tot_abs_Q>
5

> <s_epik_Chemistry_Notes>
This compound has an imine and may undergo hydrolysis.

> <i_f3d_flags>
0

> <s_lp_Force_Field>
S-OPLS

> <r_lp_Energy>
26.316374

> <b_lp_Chiralities_Consistent>
1

> <s_lp_Variant>
070-2

> <s_i_glide_gridfile>
glide-grid_D-site

> <i_i_glide_lignum>
82

> <i_i_glide_rotatable_bonds>
46

> <r_i_docking_score>
-3.68085378463333

> <r_i_glide_ligand_efficiency>
-0.0490780504617777

> <r_i_glide_ligand_efficiency_sa>
-0.206970154246091

> <r_i_glide_ligand_efficiency_ln>
-0.69221664553669

> <r_glide_XP_GScore>
-5.89005378463333

> <r_i_glide_gscore>
-5.89005378463333

> <r_i_glide_evdw>
-39.904899597168

> <r_i_glide_ecoul>
-42.1169967651367

> <r_i_glide_energy>
-82.0218963623047

> <r_i_glide_einternal>
27.2817707061768

> <r_i_glide_emodel>
-99.3555760748331

> <r_glide_XP_HBond>
-2.79158685970495

> <i_i_glide_confnum>
1

> <i_i_glide_posenum>
22

> <r_i_glide_eff_state_penalty>
2.2092

> <i_glide_XP_PoseRank>
1

> <s_psp_MMGBSA_moved_residues>


> <r_psp_MMGBSA_dG_Bind>
-34.4848556883371

> <r_psp_MMGBSA_dG_Bind_Coulomb>
-487.857108911194

> <r_psp_MMGBSA_dG_Bind_Covalent>
6.63384768609012

> <r_psp_MMGBSA_dG_Bind_Hbond>
-7.66250561406559

> <r_psp_MMGBSA_dG_Bind_Lipo>
-5.15278506287768

> <r_psp_MMGBSA_dG_Bind_Packing>
-0.818091528938425

> <r_psp_MMGBSA_dG_Bind_SelfCont>
0

> <r_psp_MMGBSA_dG_Bind_Solv_GB>
509.701898567839

> <r_psp_MMGBSA_dG_Bind_vdW>
-49.3301108251981

> <r_psp_Lig_Strain_Energy>
37.2405008262966

> <r_psp_Lig_Strain_Coulomb>
31.4512602617617

> <r_psp_Lig_Strain_Covalent>
6.63384768608934

> <r_psp_Lig_Strain_Hbond>
0

> <r_psp_Lig_Strain_Lipo>
4.22805007670936

> <r_psp_Lig_Strain_Packing>
0

> <r_psp_Lig_Strain_SelfCont>
0

> <r_psp_Lig_Strain_Solv_GB>
-21.083604086307

> <r_psp_Lig_Strain_vdW>
16.0109468880432

> <r_psp_Ligand_Energy>
-312.077744573646

> <r_psp_Ligand_Coulomb>
-153.255817247469

> <r_psp_Ligand_Covalent>
39.0191367298477

> <r_psp_Ligand_Hbond>
0

> <r_psp_Ligand_Lipo>
-11.0182463844642

> <r_psp_Ligand_Packing>
0

> <r_psp_Ligand_SelfCont>
0

> <r_psp_Ligand_Solv_GB>
-190.823234298945

> <r_psp_Ligand_vdW>
4.00041662738501

> <r_psp_Complex_Energy>
-60553.4354684199

> <r_psp_Complex_Coulomb>
-43111.4045654037

> <r_psp_Complex_Covalent>
7581.40516041371

> <r_psp_Complex_Hbond>
-775.485241388963

> <r_psp_Complex_Lipo>
-3893.21979350915

> <r_psp_Complex_Packing>
-136.827223053649

> <r_psp_Complex_SelfCont>
-172.058958621051

> <r_psp_Complex_Solv_GB>
-13177.4655526946

> <r_psp_Complex_vdW>
-6868.37929416259

> <r_psp_Receptor_Energy>
-60206.872868158

> <r_psp_Receptor_Coulomb>
-42470.291639245

> <r_psp_Receptor_Covalent>
7535.75217599777

> <r_psp_Receptor_Hbond>
-767.822735774897

> <r_psp_Receptor_Lipo>
-3877.04876206181

> <r_psp_Receptor_Packing>
-136.00913152471

> <r_psp_Receptor_SelfCont>
-172.058958621051

> <r_psp_Receptor_Solv_GB>
-13496.3442169635

> <r_psp_Receptor_vdW>
-6823.04959996478

> <r_psp_MMGBSA_dG_Bind(NS)>
-71.7253565146311

> <r_psp_MMGBSA_dG_Bind(NS)_Coulomb>
-519.308369172955

> <r_psp_MMGBSA_dG_Bind(NS)_Covalent>
9.09494701772928e-13

> <r_psp_MMGBSA_dG_Bind(NS)_Hbond>
-7.66250561406559

> <r_psp_MMGBSA_dG_Bind(NS)_Lipo>
-9.38083513958736

> <r_psp_MMGBSA_dG_Bind(NS)_Packing>
-0.818091528938425

> <r_psp_MMGBSA_dG_Bind(NS)_SelfCont>
0

> <r_psp_MMGBSA_dG_Bind(NS)_Solv_GB>
530.785502654146

> <r_psp_MMGBSA_dG_Bind(NS)_vdW>
-65.3410577132418

> <r_psp_Rec_Strain_Energy>
0

> <r_psp_Rec_Strain_Coulomb>
0

> <r_psp_Rec_Strain_Covalent>
0

> <r_psp_Rec_Strain_Hbond>
0

> <r_psp_Rec_Strain_Lipo>
0

> <r_psp_Rec_Strain_Packing>
0

> <r_psp_Rec_Strain_SelfCont>
0

> <r_psp_Rec_Strain_Solv_GB>
0

> <r_psp_Rec_Strain_vdW>
0

> <r_psp_Prime_MMGBSA_ligand_efficiency>
-0.459798075844495

> <r_psp_Prime_MMGBSA_ligand_efficiency_sa>
-0.689697113766742

> <r_psp_Prime_MMGBSA_ligand_efficiency_ln>
-6.48517776665109

> <Name>
70

> <s_m_subgroup_title>
prime_mmgbsa_all-20230714-out

> <s_m_subgroupid>
prime_mmgbsa_all-20230714-out

> <b_m_subgroup_collapsed>
0

$$$$
