STS005_prime_MMGBSA_result_43
                    3D
 Schrodinger Suite 2021-3.
161162  0  0  1  0            999 V2000
  193.8036  207.8780  249.2332 C   0  0  0  0  0  0
  193.4308  208.6912  250.2255 N   0  0  0  0  0  0
  192.8849  210.0318  250.0530 C   0  0  1  0  0  0
  192.1718  210.4065  251.3590 C   0  0  0  0  0  0
  191.4792  211.5497  251.3445 N   0  0  0  0  0  0
  190.5897  211.9976  252.4128 C   0  0  1  0  0  0
  191.3297  212.4077  253.6961 C   0  0  0  0  0  0
  190.6010  212.3168  254.8077 N   0  0  0  0  0  0
  191.0046  212.6603  256.1645 C   0  0  1  0  0  0
  189.7265  213.0855  256.9112 C   0  0  0  0  0  0
  189.8706  213.4161  258.1946 N   0  0  0  0  0  0
  188.8247  213.9376  259.0637 C   0  0  1  0  0  0
  189.3299  213.7431  260.5117 C   0  0  0  0  0  0
  188.5088  214.1424  261.4895 N   0  0  0  0  0  0
  188.7047  214.0508  262.9380 C   0  0  1  0  0  0
  188.5048  212.6217  263.4696 C   0  0  0  0  0  0
  187.4223  211.9599  263.0255 N   0  0  0  0  0  0
  194.2675  206.4794  249.6047 C   0  0  0  0  0  0
  193.7927  208.2232  248.0541 O   0  0  0  0  0  0
  193.9982  211.0398  249.7008 C   0  0  0  0  0  0
  193.4372  212.5229  248.8226 S   0  0  0  0  0  0
  192.2587  209.6576  252.3338 O   0  0  0  0  0  0
  189.6922  213.1309  251.8653 C   0  0  0  0  0  0
  192.4856  212.8287  253.6550 O   0  0  0  0  0  0
  191.8092  211.5264  256.8692 C   0  0  0  0  0  0
  191.1660  210.1544  256.7082 C   0  0  0  0  0  0
  188.6488  213.1353  256.3125 O   0  0  0  0  0  0
  188.4586  215.4050  258.6656 C   0  0  0  0  0  0
  186.8671  210.7358  263.6207 C   0  0  1  0  0  0
  187.8383  209.5371  263.6342 C   0  0  0  0  0  0
  188.6184  209.3940  262.5561 N   0  0  0  0  0  0
  189.6107  208.3197  262.3866 C   0  0  1  0  0  0
  189.0546  207.0316  261.7332 C   0  0  0  0  0  0
  190.4571  213.2790  260.7034 O   0  0  0  0  0  0
  189.2893  212.1743  264.3043 O   0  0  0  0  0  0
  186.3100  211.0664  265.0228 C   0  0  0  0  0  0
  187.8698  208.7849  264.6064 O   0  0  0  0  0  0
  187.8747  207.0686  261.1340 N   0  0  0  0  0  0
  189.6966  205.9922  261.7686 O   0  0  0  0  0  0
  190.8387  208.8560  261.6118 C   0  0  0  0  0  0
  191.3729  210.2020  262.1438 C   0  0  0  0  0  0
  190.0247  214.6989  263.4425 C   0  0  0  0  0  0
  190.2585  216.1796  263.0748 C   0  0  0  0  0  0
  191.0962  216.3830  261.7999 C   0  0  0  0  0  0
  191.5648  217.7710  261.6630 N   0  0  0  0  0  0
  192.1495  218.3383  260.5912 C   0  0  0  0  0  0
  192.3497  217.6692  259.4442 N   0  0  0  0  0  0
  192.5463  219.6125  260.6864 N   0  3  0  0  0  0
  192.7373  210.5981  261.5554 C   0  0  0  0  0  0
  193.0857  211.9887  261.8973 N   0  0  0  0  0  0
  194.2960  212.5798  261.8359 C   0  0  0  0  0  0
  194.4049  213.8713  262.1727 N   0  3  0  0  0  0
  195.3978  211.9193  261.4471 N   0  0  0  0  0  0
  188.4097  213.3813  252.6849 C   0  0  0  0  0  0
  186.0895  214.2983  252.5771 N   0  0  0  0  0  0
  187.4286  214.3207  251.9636 C   0  0  0  0  0  0
  184.9632  214.8394  252.0697 C   0  0  0  0  0  0
  184.9688  215.5799  250.9501 N   0  3  0  0  0  0
  183.7969  214.6228  252.6901 N   0  0  0  0  0  0
  187.4718  216.1003  259.5965 C   0  0  0  0  0  0
  186.2139  215.5421  259.8460 C   0  0  0  0  0  0
  185.3886  216.1496  260.7935 C   0  0  0  0  0  0
  185.7418  217.2728  261.4680 N   0  0  0  0  0  0
  186.9484  217.8265  261.1885 C   0  0  0  0  0  0
  187.8366  217.2752  260.2637 C   0  0  0  0  0  0
  191.5121  209.3538  255.6163 C   0  0  0  0  0  0
  190.8405  208.1534  255.3796 C   0  0  0  0  0  0
  189.8191  207.7556  256.2426 C   0  0  0  0  0  0
  189.4990  208.5272  257.3600 C   0  0  0  0  0  0
  190.1741  209.7254  257.5927 C   0  0  0  0  0  0
  191.1374  207.3799  254.2186 N   0  0  0  0  0  0
  192.3263  206.9049  253.8301 C   0  0  0  0  0  0
  192.3982  206.2886  252.6689 N   0  0  0  0  0  0
  193.4481  206.9948  254.5295 N   0  3  0  0  0  0
  194.5710  214.0000  249.6355 S   0  0  0  0  0  0
  196.2158  213.7472  248.9037 C   0  0  0  0  0  0
  196.3644  213.8109  247.3571 C   0  0  2  0  0  0
  197.6636  213.1956  246.9202 N   0  3  0  0  0  0
  196.2809  215.2858  246.8057 C   0  0  0  0  0  0
  197.2594  215.7551  246.1767 O   0  0  0  0  0  0
  195.1894  215.8522  247.0321 O   0  5  0  0  0  0
  193.3885  208.3881  251.1931 H   0  0  0  0  0  0
  192.1388  209.9967  249.2560 H   0  0  0  0  0  0
  191.5441  212.1343  250.5270 H   0  0  0  0  0  0
  189.9603  211.1374  252.6521 H   0  0  0  0  0  0
  189.6305  212.0371  254.7506 H   0  0  0  0  0  0
  191.6339  213.5512  256.1121 H   0  0  0  0  0  0
  190.7422  213.2614  258.6862 H   0  0  0  0  0  0
  187.9416  213.3047  258.9499 H   0  0  0  0  0  0
  187.6347  214.5666  261.1986 H   0  0  0  0  0  0
  187.8872  214.6279  263.3726 H   0  0  0  0  0  0
  186.8539  212.3714  262.2940 H   0  0  0  0  0  0
  193.4372  205.7812  249.5078 H   0  0  0  0  0  0
  195.0647  206.1586  248.9353 H   0  0  0  0  0  0
  194.6481  206.4386  250.6245 H   0  0  0  0  0  0
  194.7555  210.5735  249.0697 H   0  0  0  0  0  0
  194.5168  211.3421  250.6124 H   0  0  0  0  0  0
  190.2666  214.0539  251.7654 H   0  0  0  0  0  0
  189.3826  212.8589  250.8564 H   0  0  0  0  0  0
  192.8132  211.4815  256.4423 H   0  0  0  0  0  0
  191.9931  211.7292  257.9251 H   0  0  0  0  0  0
  189.3670  216.0032  258.5804 H   0  0  0  0  0  0
  188.0191  215.4102  257.6664 H   0  0  0  0  0  0
  186.0269  210.4312  262.9958 H   0  0  0  0  0  0
  188.4904  210.0292  261.7788 H   0  0  0  0  0  0
  189.9594  208.0224  263.3780 H   0  0  0  0  0  0
  185.8420  210.1992  265.4821 H   0  0  0  0  0  0
  187.0979  211.4009  265.6982 H   0  0  0  0  0  0
  185.5524  211.8479  264.9719 H   0  0  0  0  0  0
  187.3524  207.9300  261.1033 H   0  0  0  0  0  0
  187.4951  206.2257  260.7360 H   0  0  0  0  0  0
  191.6250  208.0980  261.6458 H   0  0  0  0  0  0
  190.5810  208.9659  260.5572 H   0  0  0  0  0  0
  190.6451  211.0077  262.0413 H   0  0  0  0  0  0
  191.5037  210.0649  263.2194 H   0  0  0  0  0  0
  190.0175  214.6446  264.5331 H   0  0  0  0  0  0
  190.8824  214.0914  263.1523 H   0  0  0  0  0  0
  189.2739  216.6219  262.9163 H   0  0  0  0  0  0
  190.6876  216.7288  263.9151 H   0  0  0  0  0  0
  191.8985  215.6529  261.6969 H   0  0  0  0  0  0
  190.4389  216.2446  260.9453 H   0  0  0  0  0  0
  191.4991  218.3409  262.5014 H   0  0  0  0  0  0
  192.7943  218.1140  258.6545 H   0  0  0  0  0  0
  192.0739  216.7016  259.3661 H   0  0  0  0  0  0
  192.9929  220.0863  259.9153 H   0  0  0  0  0  0
  193.4925  209.9858  262.0493 H   0  0  0  0  0  0
  192.8100  210.3925  260.4868 H   0  0  0  0  0  0
  192.2874  212.5626  262.1371 H   0  0  0  0  0  0
  195.3006  214.3383  262.1401 H   0  0  0  0  0  0
  196.2975  212.3776  261.4248 H   0  0  0  0  0  0
  195.3389  210.9470  261.1868 H   0  0  0  0  0  0
  187.9262  212.4496  252.9843 H   0  0  0  0  0  0
  188.7162  213.8741  253.6091 H   0  0  0  0  0  0
  186.0236  213.7913  253.4493 H   0  0  0  0  0  0
  187.7727  215.3460  252.1045 H   0  0  0  0  0  0
  187.4043  214.1410  250.8882 H   0  0  0  0  0  0
  184.1158  215.9723  250.5793 H   0  0  0  0  0  0
  182.9430  215.0280  252.3348 H   0  0  0  0  0  0
  183.7382  213.9920  253.4802 H   0  0  0  0  0  0
  185.8811  214.6467  259.3367 H   0  0  0  0  0  0
  184.4180  215.7315  261.0251 H   0  0  0  0  0  0
  187.2002  218.7290  261.7287 H   0  0  0  0  0  0
  188.7910  217.7493  260.0861 H   0  0  0  0  0  0
  192.2652  209.6995  254.9193 H   0  0  0  0  0  0
  189.2566  206.8591  256.0460 H   0  0  0  0  0  0
  188.7085  208.2098  258.0259 H   0  0  0  0  0  0
  189.8966  210.3404  258.4352 H   0  0  0  0  0  0
  190.3644  207.1383  253.6103 H   0  0  0  0  0  0
  193.2007  205.7262  252.4314 H   0  0  0  0  0  0
  191.5864  206.2873  252.0575 H   0  0  0  0  0  0
  194.3419  206.9627  254.0622 H   0  0  0  0  0  0
  196.5340  212.7610  249.2479 H   0  0  0  0  0  0
  196.9083  214.4469  249.3764 H   0  0  0  0  0  0
  195.6092  213.2066  246.8535 H   0  0  0  0  0  0
  197.7553  213.2885  245.9187 H   0  0  0  0  0  0
  198.4318  213.6534  247.3927 H   0  0  0  0  0  0
  193.6021  214.3921  262.4950 H   0  0  0  0  0  0
  192.4316  220.1045  261.5669 H   0  0  0  0  0  0
  185.8351  215.7563  250.4628 H   0  0  0  0  0  0
  193.3986  207.1806  255.5194 H   0  0  0  0  0  0
  197.6584  212.2178  247.1719 H   0  0  0  0  0  0
  1  2  1  0  0  0
  1 18  1  0  0  0
  1 19  2  0  0  0
  2  3  1  0  0  0
  2 82  1  0  0  0
  3  4  1  0  0  0
  3 20  1  0  0  0
  3 83  1  0  0  0
  4  5  1  0  0  0
  4 22  2  0  0  0
  5  6  1  0  0  0
  5 84  1  0  0  0
  6  7  1  0  0  0
  6 23  1  0  0  0
  6 85  1  0  0  0
  7  8  1  0  0  0
  7 24  2  0  0  0
  8  9  1  0  0  0
  8 86  1  0  0  0
  9 10  1  0  0  0
  9 25  1  0  0  0
  9 87  1  0  0  0
 10 11  1  0  0  0
 10 27  2  0  0  0
 11 12  1  0  0  0
 11 88  1  0  0  0
 12 13  1  0  0  0
 12 28  1  0  0  0
 12 89  1  0  0  0
 13 14  1  0  0  0
 13 34  2  0  0  0
 14 15  1  0  0  0
 14 90  1  0  0  0
 15 16  1  0  0  0
 15 42  1  0  0  0
 15 91  1  0  0  0
 16 17  1  0  0  0
 16 35  2  0  0  0
 17 29  1  0  0  0
 17 92  1  0  0  0
 18 93  1  0  0  0
 18 94  1  0  0  0
 18 95  1  0  0  0
 20 21  1  0  0  0
 20 96  1  0  0  0
 20 97  1  0  0  0
 21 75  1  0  0  0
 23 54  1  0  0  0
 23 98  1  0  0  0
 23 99  1  0  0  0
 25 26  1  0  0  0
 25100  1  0  0  0
 25101  1  0  0  0
 26 66  2  0  0  0
 26 70  1  0  0  0
 28 60  1  0  0  0
 28102  1  0  0  0
 28103  1  0  0  0
 29 30  1  0  0  0
 29 36  1  0  0  0
 29104  1  0  0  0
 30 31  1  0  0  0
 30 37  2  0  0  0
 31 32  1  0  0  0
 31105  1  0  0  0
 32 33  1  0  0  0
 32 40  1  0  0  0
 32106  1  0  0  0
 33 38  1  0  0  0
 33 39  2  0  0  0
 36107  1  0  0  0
 36108  1  0  0  0
 36109  1  0  0  0
 38110  1  0  0  0
 38111  1  0  0  0
 40 41  1  0  0  0
 40112  1  0  0  0
 40113  1  0  0  0
 41 49  1  0  0  0
 41114  1  0  0  0
 41115  1  0  0  0
 42 43  1  0  0  0
 42116  1  0  0  0
 42117  1  0  0  0
 43 44  1  0  0  0
 43118  1  0  0  0
 43119  1  0  0  0
 44 45  1  0  0  0
 44120  1  0  0  0
 44121  1  0  0  0
 45 46  1  0  0  0
 45122  1  0  0  0
 46 47  1  0  0  0
 46 48  2  0  0  0
 47123  1  0  0  0
 47124  1  0  0  0
 48125  1  0  0  0
 48158  1  0  0  0
 49 50  1  0  0  0
 49126  1  0  0  0
 49127  1  0  0  0
 50 51  1  0  0  0
 50128  1  0  0  0
 51 52  2  0  0  0
 51 53  1  0  0  0
 52129  1  0  0  0
 52157  1  0  0  0
 53130  1  0  0  0
 53131  1  0  0  0
 54 56  1  0  0  0
 54132  1  0  0  0
 54133  1  0  0  0
 55 56  1  0  0  0
 55 57  1  0  0  0
 55134  1  0  0  0
 56135  1  0  0  0
 56136  1  0  0  0
 57 58  2  0  0  0
 57 59  1  0  0  0
 58137  1  0  0  0
 58159  1  0  0  0
 59138  1  0  0  0
 59139  1  0  0  0
 60 61  2  0  0  0
 60 65  1  0  0  0
 61 62  1  0  0  0
 61140  1  0  0  0
 62 63  2  0  0  0
 62141  1  0  0  0
 63 64  1  0  0  0
 64 65  2  0  0  0
 64142  1  0  0  0
 65143  1  0  0  0
 66 67  1  0  0  0
 66144  1  0  0  0
 67 68  2  0  0  0
 67 71  1  0  0  0
 68 69  1  0  0  0
 68145  1  0  0  0
 69 70  2  0  0  0
 69146  1  0  0  0
 70147  1  0  0  0
 71 72  1  0  0  0
 71148  1  0  0  0
 72 73  1  0  0  0
 72 74  2  0  0  0
 73149  1  0  0  0
 73150  1  0  0  0
 74151  1  0  0  0
 74160  1  0  0  0
 75 76  1  0  0  0
 76 77  1  0  0  0
 76152  1  0  0  0
 76153  1  0  0  0
 77 79  1  0  0  0
 77 78  1  0  0  0
 77154  1  0  0  0
 78155  1  0  0  0
 78156  1  0  0  0
 78161  1  0  0  0
 79 80  2  0  0  0
 79 81  1  0  0  0
M  CHG  6  48   1  52   1  58   1  74   1  78   1  81  -1
M  END
> <s_m_entry_id>
45

> <s_m_entry_name>
STS005-ligand-20230714.42

> <s_m_Source_Path>
D:\xubinbin\STS005

> <s_m_Source_File>
prime_mmgbsa_all-20230714-out.maegz

> <i_m_Source_File_Index>
45

> <s_psp_Prime_MMGBSA_Input_Structure_Hash>
5e9d78e38d9d0108ece048a38ab2489958987008743ffbf9fa577945

> <i_psp_number_heavy_atoms>
81

> <b_psp_distorted_structure>
1

> <i_psp_model_num>
0

> <r_psp_Prime_Coulomb>
-43120.5417404311

> <r_psp_Prime_Covalent>
7580.83580543767

> <r_psp_Prime_vdW>
-6874.28452233335

> <r_psp_Prime_Lipo>
-3896.28917391229

> <r_psp_Prime_Solv_GB>
-13196.3401414305

> <r_psp_Prime_Energy>
-60590.644368829

> <s_psp_Prime_Energy_Force_Field>
S-OPLS

> <s_psp_Prime_Energy_Solvent_Model>
VSGB2.1

> <r_psp_Prime_Bond_Covalent>
957.29293024212

> <r_psp_Prime_Bond_SGB>
111444.238443564

> <r_psp_Prime_Angle_Covalent>
3214.33736379597

> <r_psp_Prime_Angle_SGB>
-44127.648539736

> <r_psp_Prime_Torsion_Covalent>
3409.20551139958

> <r_psp_Prime_NB14_LJ>
7980.0202068007

> <r_psp_Prime_NB14_Lipo>
0

> <r_psp_Prime_NB14_Elec>
48364.4930944445

> <r_psp_Prime_NB14_SGB>
-41157.859674441

> <r_psp_Prime_NBShort_LJ>
-14089.3473573889

> <r_psp_Prime_NBShort_Lipo>
-3896.28917391229

> <r_psp_Prime_NBShort_Elec>
-95945.5994053853

> <r_psp_Prime_NBShort_SGB>
45181.240165031

> <r_psp_Prime_NBLong_LJ>
-764.957371745181

> <r_psp_Prime_NBLong_Lipo>
0

> <r_psp_Prime_NBLong_Elec>
4460.56457050963

> <r_psp_Prime_NBLong_SGB>
-4272.97215028066

> <r_psp_Prime_Self_SGB>
-80263.3383855675

> <r_psp_Prime_Hbond>
-775.952023408719

> <r_psp_Prime_Packing>
-136.013614129727

> <r_psp_Prime_SelfCont>
-172.058958621051

> <i_lp_mmshare_version>
54117

> <s_epik_input>
Tz1DKFtPSF0pW0NAQEhdKFtOSDJdKVtDSDJdU1NbQ0gyXVtDQEBIXShbTkhdQyg9TylbQ0gzXSlDKD1PKVtOSF1bQ0BIXShbQ0gyXVtDSDJdW0NIMl1bTkhdL0MoPU4vW0hdKVtOSDJdKUMoPU8pW05IXVtDQEhdKFtDSDJdYzFbY0hdYyhbY0hdW2NIXVtjSF0xKVtOSF0vQyhbTkgyXSk9Ti9bSF0pQyg9TylbTkhdW0NASF0oW0NIMl1jMltjSF1bY0hdbltjSF1bY0hdMilDKD1PKVtOSF1bQ0BIXShbQ0gyXVtDSDJdW0NIMl1bTkhdL0MoW05IMl0pPU4vW0hdKUMoPU8pW05IXVtDQEhdKFtDSDNdKUMoPU8pW05IXVtDQEBIXShDKD1PKVtOSDJdKVtDSDJdW0NIMl1bQ0gyXVtOSF0vQyg9Ti9bSF0pW05IMl0=

> <s_epik_cmdline>
J2VwaWtfcHl0aG9uJywgJy1waCcsICc3LjAnLCAnLXRuJywgJzgnLCAnLW1hJywgJzUwMCcsICctaW1hZScsICc8aW5maWxlLm1hZT4nLCAnLW9tYWUnLCAnPG91dGZpbGUubWFlPic=

> <r_epik_Ionization_Penalty>
  0.0261

> <r_epik_Ionization_Penalty_Charging>
  0.0182

> <r_epik_Ionization_Penalty_Neutral>
  0.0079

> <r_epik_State_Penalty>
  0.0144

> <r_epik_Charging_Adjusted_Penalty>
0.0326163508838604

> <i_epik_Tot_Q>
4

> <i_epik_Tot_abs_Q>
6

> <s_epik_Chemistry_Notes>
This compound has an imine and may undergo hydrolysis.

> <i_f3d_flags>
0

> <s_lp_Force_Field>
S-OPLS

> <r_lp_Energy>
26.218123

> <b_lp_Chiralities_Consistent>
1

> <s_lp_Variant>
071-1

> <s_i_glide_gridfile>
glide-grid_D-site

> <i_i_glide_lignum>
83

> <i_i_glide_rotatable_bonds>
48

> <r_i_docking_score>
-6.59565362438542

> <r_i_glide_ligand_efficiency>
-0.0814278225232768

> <r_i_glide_ligand_efficiency_sa>
-0.352317725619711

> <r_i_glide_ligand_efficiency_ln>
-1.22267416658707

> <r_glide_XP_GScore>
-6.61005362438542

> <r_i_glide_gscore>
-6.61005362438542

> <r_i_glide_evdw>
-45.9546966552734

> <r_i_glide_ecoul>
-26.0080833435059

> <r_i_glide_energy>
-71.9627799987793

> <r_i_glide_einternal>
31.2526664733887

> <r_i_glide_emodel>
-100.312178170342

> <r_glide_XP_HBond>
-2.41084924858269

> <i_i_glide_confnum>
1

> <i_i_glide_posenum>
13

> <r_i_glide_eff_state_penalty>
0.0144

> <i_glide_XP_PoseRank>
1

> <s_psp_MMGBSA_moved_residues>


> <r_psp_MMGBSA_dG_Bind>
-58.0169977686091

> <r_psp_MMGBSA_dG_Bind_Coulomb>
-507.758420005426

> <r_psp_MMGBSA_dG_Bind_Covalent>
6.52692621298593

> <r_psp_MMGBSA_dG_Bind_Hbond>
-8.12928763382217

> <r_psp_MMGBSA_dG_Bind_Lipo>
-6.70386765972489

> <r_psp_MMGBSA_dG_Bind_Packing>
-0.00448260501664777

> <r_psp_MMGBSA_dG_Bind_SelfCont>
0

> <r_psp_MMGBSA_dG_Bind_Solv_GB>
521.984580270911

> <r_psp_MMGBSA_dG_Bind_vdW>
-63.9324463485345

> <r_psp_Lig_Strain_Energy>
15.7643871808478

> <r_psp_Lig_Strain_Coulomb>
20.5432229472149

> <r_psp_Lig_Strain_Covalent>
6.52692621298399

> <r_psp_Lig_Strain_Hbond>
0

> <r_psp_Lig_Strain_Lipo>
2.62549984814023

> <r_psp_Lig_Strain_Packing>
0

> <r_psp_Lig_Strain_SelfCont>
0

> <r_psp_Lig_Strain_Solv_GB>
-26.4241735482763

> <r_psp_Lig_Strain_vdW>
12.4929117207849

> <r_psp_Ligand_Energy>
-325.75450290248

> <r_psp_Ligand_Coulomb>
-142.491681180702

> <r_psp_Ligand_Covalent>
38.5567032269118

> <r_psp_Ligand_Hbond>
0

> <r_psp_Ligand_Lipo>
-12.5365441907585

> <r_psp_Ligand_Packing>
0

> <r_psp_Ligand_SelfCont>
0

> <r_psp_Ligand_Solv_GB>
-221.980504737899

> <r_psp_Ligand_vdW>
12.6975239799674

> <r_psp_Complex_Energy>
-60590.644368829

> <r_psp_Complex_Coulomb>
-43120.5417404311

> <r_psp_Complex_Covalent>
7580.83580543767

> <r_psp_Complex_Hbond>
-775.952023408719

> <r_psp_Complex_Lipo>
-3896.28917391229

> <r_psp_Complex_Packing>
-136.013614129727

> <r_psp_Complex_SelfCont>
-172.058958621051

> <r_psp_Complex_Solv_GB>
-13196.3401414305

> <r_psp_Complex_vdW>
-6874.28452233335

> <r_psp_Receptor_Energy>
-60206.872868158

> <r_psp_Receptor_Coulomb>
-42470.291639245

> <r_psp_Receptor_Covalent>
7535.75217599777

> <r_psp_Receptor_Hbond>
-767.822735774897

> <r_psp_Receptor_Lipo>
-3877.04876206181

> <r_psp_Receptor_Packing>
-136.00913152471

> <r_psp_Receptor_SelfCont>
-172.058958621051

> <r_psp_Receptor_Solv_GB>
-13496.3442169635

> <r_psp_Receptor_vdW>
-6823.04959996478

> <r_psp_MMGBSA_dG_Bind(NS)>
-73.781384949456

> <r_psp_MMGBSA_dG_Bind(NS)_Coulomb>
-528.301642952647

> <r_psp_MMGBSA_dG_Bind(NS)_Covalent>
1.81898940354586e-12

> <r_psp_MMGBSA_dG_Bind(NS)_Hbond>
-8.12928763382217

> <r_psp_MMGBSA_dG_Bind(NS)_Lipo>
-9.32936750786484

> <r_psp_MMGBSA_dG_Bind(NS)_Packing>
-0.00448260501664777

> <r_psp_MMGBSA_dG_Bind(NS)_SelfCont>
0

> <r_psp_MMGBSA_dG_Bind(NS)_Solv_GB>
548.408753819187

> <r_psp_MMGBSA_dG_Bind(NS)_vdW>
-76.4253580693194

> <r_psp_Rec_Strain_Energy>
0

> <r_psp_Rec_Strain_Coulomb>
0

> <r_psp_Rec_Strain_Covalent>
0

> <r_psp_Rec_Strain_Hbond>
0

> <r_psp_Rec_Strain_Lipo>
0

> <r_psp_Rec_Strain_Packing>
0

> <r_psp_Rec_Strain_SelfCont>
0

> <r_psp_Rec_Strain_Solv_GB>
0

> <r_psp_Rec_Strain_vdW>
0

> <r_psp_Prime_MMGBSA_ligand_efficiency>
-0.716259231711224

> <r_psp_Prime_MMGBSA_ligand_efficiency_sa>
-1.07438884756684

> <r_psp_Prime_MMGBSA_ligand_efficiency_ln>
-10.7549438515622

> <Name>
71

> <s_m_subgroup_title>
prime_mmgbsa_all-20230714-out

> <s_m_subgroupid>
prime_mmgbsa_all-20230714-out

> <b_m_subgroup_collapsed>
0

$$$$
