STS005_prime_MMGBSA_result_49
                    3D
 Schrodinger Suite 2021-3.
155155  0  0  1  0            999 V2000
  192.7872  219.5709  252.0220 C   0  0  0  0  0  0
  191.9202  218.5773  252.2488 N   0  0  0  0  0  0
  191.7829  217.4077  251.3830 C   0  0  1  0  0  0
  192.8738  216.3678  251.6826 C   0  0  0  0  0  0
  193.0266  215.4095  250.7611 N   0  0  0  0  0  0
  193.7789  214.1763  250.9780 C   0  0  1  0  0  0
  193.0880  213.3205  252.0527 C   0  0  0  0  0  0
  193.8814  212.6975  252.9273 N   0  0  0  0  0  0
  193.4646  211.6733  253.8771 C   0  0  1  0  0  0
  194.7416  211.0669  254.4839 C   0  0  0  0  0  0
  194.6153  209.8504  255.0196 N   0  0  0  0  0  0
  195.6314  209.1699  255.8199 C   0  0  1  0  0  0
  194.8725  208.3815  256.8937 C   0  0  0  0  0  0
  194.0484  209.1149  257.6433 N   0  0  0  0  0  0
  193.2835  208.6400  258.7813 C   0  0  1  0  0  0
  193.4696  209.6873  259.8927 C   0  0  0  0  0  0
  193.3109  209.2616  261.1483 N   0  0  0  0  0  0
  192.9233  220.6378  253.0963 C   0  0  0  0  0  0
  193.4564  219.6511  250.9931 O   0  0  0  0  0  0
  190.3695  216.8103  251.5579 C   0  0  0  0  0  0
  189.9137  216.2081  253.2119 S   0  0  0  0  0  0
  193.5042  216.4138  252.7405 O   0  0  0  0  0  0
  193.8996  213.4246  249.6233 C   0  0  0  0  0  0
  191.8655  213.1849  252.0068 O   0  0  0  0  0  0
  192.4658  212.1781  254.9639 C   0  0  0  0  0  0
  192.9760  213.3462  255.7953 C   0  0  0  0  0  0
  195.7852  211.7228  254.4963 O   0  0  0  0  0  0
  196.6027  208.3389  254.9571 C   0  0  0  0  0  0
  193.4549  210.0831  262.3419 C   0  0  1  0  0  0
  192.1376  210.0160  263.1084 C   0  0  0  0  0  0
  191.7922  211.1071  263.7970 N   0  0  0  0  0  0
  190.5793  211.2148  264.6116 C   0  0  1  0  0  0
  190.6807  212.3859  265.6135 C   0  0  0  0  0  0
  194.9928  207.1654  257.0022 O   0  0  0  0  0  0
  193.7939  210.8369  259.5929 O   0  0  0  0  0  0
  194.5852  209.5000  263.1981 C   0  0  0  0  0  0
  191.4810  208.9752  263.0722 O   0  0  0  0  0  0
  191.1345  213.5564  265.1848 N   0  0  0  0  0  0
  190.3980  212.2175  266.7938 O   0  0  0  0  0  0
  189.3259  211.3025  263.7048 C   0  0  0  0  0  0
  188.0073  211.0514  264.4507 C   0  0  0  0  0  0
  191.8216  208.3548  258.3670 C   0  0  0  0  0  0
  190.8998  208.0570  259.5606 C   0  0  0  0  0  0
  189.6209  207.2691  259.2365 C   0  0  0  0  0  0
  188.6550  207.4105  260.3362 N   0  0  0  0  0  0
  188.7604  207.0155  261.6193 C   0  0  0  0  0  0
  189.7696  206.2557  262.0787 N   0  0  0  0  0  0
  187.8135  207.4296  262.4694 N   0  3  0  0  0  0
  186.7952  211.1576  263.5160 C   0  0  0  0  0  0
  185.5270  211.0250  264.2483 N   0  0  0  0  0  0
  184.7600  211.9976  264.7740 C   0  0  0  0  0  0
  183.6555  211.6433  265.4423 N   0  3  0  0  0  0
  185.0679  213.2975  264.6529 N   0  0  0  0  0  0
  194.3846  211.9612  249.7257 C   0  0  0  0  0  0
  193.6895  209.6236  250.3122 N   0  0  0  0  0  0
  193.2344  210.9287  249.8075 C   0  0  0  0  0  0
  192.9282  208.5487  250.5971 C   0  0  0  0  0  0
  193.5221  207.4329  251.0431 N   0  3  0  0  0  0
  191.5938  208.5669  250.4494 N   0  0  0  0  0  0
  193.6442  213.1003  256.9926 C   0  0  0  0  0  0
  194.2274  214.1497  257.7055 C   0  0  0  0  0  0
  194.0652  215.4655  257.2626 C   0  0  0  0  0  0
  193.3545  215.7194  256.0871 C   0  0  0  0  0  0
  192.8155  214.6620  255.3550 C   0  0  0  0  0  0
  195.0176  213.8701  258.8605 N   0  0  0  0  0  0
  196.0610  213.0318  258.9271 C   0  0  0  0  0  0
  196.5311  212.3407  257.8953 N   0  0  0  0  0  0
  196.6753  212.8820  260.0850 N   0  3  0  0  0  0
  197.7883  207.6883  255.6960 C   0  0  0  0  0  0
  188.0638  215.4071  252.9103 S   0  0  0  0  0  0
  188.3895  213.6872  252.4172 C   0  0  0  0  0  0
  188.7900  212.7214  253.5678 C   0  0  2  0  0  0
  189.6312  211.5826  253.0638 N   0  3  0  0  0  0
  187.5752  212.1070  254.3687 C   0  0  0  0  0  0
  187.7731  211.0047  254.9321 O   0  0  0  0  0  0
  186.5568  212.8293  254.4409 O   0  5  0  0  0  0
  191.4479  218.5092  253.1371 H   0  0  0  0  0  0
  191.8974  217.7249  250.3441 H   0  0  0  0  0  0
  192.4368  215.4280  249.9461 H   0  0  0  0  0  0
  194.7792  214.4335  251.3339 H   0  0  0  0  0  0
  194.8784  212.8744  252.9518 H   0  0  0  0  0  0
  192.9769  210.8881  253.2955 H   0  0  0  0  0  0
  193.7348  209.3612  254.9531 H   0  0  0  0  0  0
  196.2268  209.9210  256.3411 H   0  0  0  0  0  0
  194.0870  210.1230  257.5790 H   0  0  0  0  0  0
  193.6966  207.6948  259.1270 H   0  0  0  0  0  0
  192.8973  208.3548  261.3249 H   0  0  0  0  0  0
  192.2466  220.4652  253.9327 H   0  0  0  0  0  0
  193.9439  220.6484  253.4774 H   0  0  0  0  0  0
  192.7054  221.6187  252.6753 H   0  0  0  0  0  0
  190.2497  215.9708  250.8720 H   0  0  0  0  0  0
  189.6242  217.5443  251.2503 H   0  0  0  0  0  0
  192.9369  213.4258  249.1095 H   0  0  0  0  0  0
  194.5793  213.9842  248.9787 H   0  0  0  0  0  0
  191.5430  212.5091  254.5008 H   0  0  0  0  0  0
  192.1452  211.3694  255.6229 H   0  0  0  0  0  0
  196.0442  207.5646  254.4285 H   0  0  0  0  0  0
  197.0097  209.0016  254.1935 H   0  0  0  0  0  0
  193.6800  211.1202  262.0834 H   0  0  0  0  0  0
  192.4143  211.9002  263.8363 H   0  0  0  0  0  0
  190.5119  210.2966  265.1984 H   0  0  0  0  0  0
  194.7638  210.1031  264.0880 H   0  0  0  0  0  0
  194.3632  208.4849  263.5320 H   0  0  0  0  0  0
  195.5129  209.4686  262.6306 H   0  0  0  0  0  0
  191.3174  213.7351  264.2134 H   0  0  0  0  0  0
  191.2495  214.2901  265.8640 H   0  0  0  0  0  0
  189.2971  212.2762  263.2132 H   0  0  0  0  0  0
  189.3897  210.5681  262.8999 H   0  0  0  0  0  0
  188.0674  210.0225  264.8096 H   0  0  0  0  0  0
  187.8887  211.6763  265.3379 H   0  0  0  0  0  0
  191.4130  209.2100  257.8263 H   0  0  0  0  0  0
  191.8115  207.5154  257.6692 H   0  0  0  0  0  0
  191.4839  207.4098  260.2148 H   0  0  0  0  0  0
  190.6843  208.9574  260.1420 H   0  0  0  0  0  0
  189.1946  207.5339  258.2678 H   0  0  0  0  0  0
  189.8512  206.2034  259.1897 H   0  0  0  0  0  0
  187.8926  208.0482  260.1246 H   0  0  0  0  0  0
  189.8377  206.0239  263.0588 H   0  0  0  0  0  0
  190.5236  205.9646  261.4683 H   0  0  0  0  0  0
  187.8337  207.1728  263.4456 H   0  0  0  0  0  0
  186.8525  212.0301  262.8670 H   0  0  0  0  0  0
  186.7993  210.2974  262.8468 H   0  0  0  0  0  0
  185.2142  210.0685  264.3776 H   0  0  0  0  0  0
  183.0498  212.3386  265.8528 H   0  0  0  0  0  0
  184.4849  214.0156  265.0559 H   0  0  0  0  0  0
  185.8450  213.5692  264.0674 H   0  0  0  0  0  0
  194.9144  211.7640  248.7917 H   0  0  0  0  0  0
  195.1370  211.8345  250.5046 H   0  0  0  0  0  0
  194.6886  209.5606  250.4949 H   0  0  0  0  0  0
  192.3441  211.2946  250.3167 H   0  0  0  0  0  0
  192.9180  210.7081  248.7872 H   0  0  0  0  0  0
  192.9831  206.5931  251.2117 H   0  0  0  0  0  0
  191.0305  207.7301  250.5916 H   0  0  0  0  0  0
  191.1101  209.3990  250.1434 H   0  0  0  0  0  0
  193.7536  212.0839  257.3377 H   0  0  0  0  0  0
  194.5067  216.2928  257.8013 H   0  0  0  0  0  0
  193.2459  216.7297  255.7184 H   0  0  0  0  0  0
  192.2982  214.8679  254.4288 H   0  0  0  0  0  0
  194.8627  214.4378  259.6792 H   0  0  0  0  0  0
  197.4146  211.8485  257.9356 H   0  0  0  0  0  0
  196.0934  212.4600  256.9918 H   0  0  0  0  0  0
  197.6394  212.5891  260.1088 H   0  0  0  0  0  0
  198.4591  207.2022  254.9859 H   0  0  0  0  0  0
  198.3752  208.4258  256.2418 H   0  0  0  0  0  0
  197.4636  206.9231  256.4000 H   0  0  0  0  0  0
  189.1935  213.7275  251.6805 H   0  0  0  0  0  0
  187.5259  213.2990  251.8737 H   0  0  0  0  0  0
  189.4306  213.2301  254.2871 H   0  0  0  0  0  0
  189.8799  210.9884  253.8418 H   0  0  0  0  0  0
  189.1069  211.0603  252.3751 H   0  0  0  0  0  0
  183.4126  210.6667  265.5359 H   0  0  0  0  0  0
  187.0645  208.0160  262.1199 H   0  0  0  0  0  0
  194.5224  207.4118  251.2107 H   0  0  0  0  0  0
  196.1919  213.0886  260.9458 H   0  0  0  0  0  0
  190.4673  211.9601  252.6398 H   0  0  0  0  0  0
  1  2  1  0  0  0
  1 18  1  0  0  0
  1 19  2  0  0  0
  2  3  1  0  0  0
  2 77  1  0  0  0
  3  4  1  0  0  0
  3 20  1  0  0  0
  3 78  1  0  0  0
  4  5  1  0  0  0
  4 22  2  0  0  0
  5  6  1  0  0  0
  5 79  1  0  0  0
  6  7  1  0  0  0
  6 23  1  0  0  0
  6 80  1  0  0  0
  7  8  1  0  0  0
  7 24  2  0  0  0
  8  9  1  0  0  0
  8 81  1  0  0  0
  9 10  1  0  0  0
  9 25  1  0  0  0
  9 82  1  0  0  0
 10 11  1  0  0  0
 10 27  2  0  0  0
 11 12  1  0  0  0
 11 83  1  0  0  0
 12 13  1  0  0  0
 12 28  1  0  0  0
 12 84  1  0  0  0
 13 14  1  0  0  0
 13 34  2  0  0  0
 14 15  1  0  0  0
 14 85  1  0  0  0
 15 16  1  0  0  0
 15 42  1  0  0  0
 15 86  1  0  0  0
 16 17  1  0  0  0
 16 35  2  0  0  0
 17 29  1  0  0  0
 17 87  1  0  0  0
 18 88  1  0  0  0
 18 89  1  0  0  0
 18 90  1  0  0  0
 20 21  1  0  0  0
 20 91  1  0  0  0
 20 92  1  0  0  0
 21 70  1  0  0  0
 23 54  1  0  0  0
 23 93  1  0  0  0
 23 94  1  0  0  0
 25 26  1  0  0  0
 25 95  1  0  0  0
 25 96  1  0  0  0
 26 60  2  0  0  0
 26 64  1  0  0  0
 28 69  1  0  0  0
 28 97  1  0  0  0
 28 98  1  0  0  0
 29 30  1  0  0  0
 29 36  1  0  0  0
 29 99  1  0  0  0
 30 31  1  0  0  0
 30 37  2  0  0  0
 31 32  1  0  0  0
 31100  1  0  0  0
 32 33  1  0  0  0
 32 40  1  0  0  0
 32101  1  0  0  0
 33 38  1  0  0  0
 33 39  2  0  0  0
 36102  1  0  0  0
 36103  1  0  0  0
 36104  1  0  0  0
 38105  1  0  0  0
 38106  1  0  0  0
 40 41  1  0  0  0
 40107  1  0  0  0
 40108  1  0  0  0
 41 49  1  0  0  0
 41109  1  0  0  0
 41110  1  0  0  0
 42 43  1  0  0  0
 42111  1  0  0  0
 42112  1  0  0  0
 43 44  1  0  0  0
 43113  1  0  0  0
 43114  1  0  0  0
 44 45  1  0  0  0
 44115  1  0  0  0
 44116  1  0  0  0
 45 46  1  0  0  0
 45117  1  0  0  0
 46 47  1  0  0  0
 46 48  2  0  0  0
 47118  1  0  0  0
 47119  1  0  0  0
 48120  1  0  0  0
 48152  1  0  0  0
 49 50  1  0  0  0
 49121  1  0  0  0
 49122  1  0  0  0
 50 51  1  0  0  0
 50123  1  0  0  0
 51 52  2  0  0  0
 51 53  1  0  0  0
 52124  1  0  0  0
 52151  1  0  0  0
 53125  1  0  0  0
 53126  1  0  0  0
 54 56  1  0  0  0
 54127  1  0  0  0
 54128  1  0  0  0
 55 56  1  0  0  0
 55 57  1  0  0  0
 55129  1  0  0  0
 56130  1  0  0  0
 56131  1  0  0  0
 57 58  2  0  0  0
 57 59  1  0  0  0
 58132  1  0  0  0
 58153  1  0  0  0
 59133  1  0  0  0
 59134  1  0  0  0
 60 61  1  0  0  0
 60135  1  0  0  0
 61 62  2  0  0  0
 61 65  1  0  0  0
 62 63  1  0  0  0
 62136  1  0  0  0
 63 64  2  0  0  0
 63137  1  0  0  0
 64138  1  0  0  0
 65 66  1  0  0  0
 65139  1  0  0  0
 66 67  1  0  0  0
 66 68  2  0  0  0
 67140  1  0  0  0
 67141  1  0  0  0
 68142  1  0  0  0
 68154  1  0  0  0
 69143  1  0  0  0
 69144  1  0  0  0
 69145  1  0  0  0
 70 71  1  0  0  0
 71 72  1  0  0  0
 71146  1  0  0  0
 71147  1  0  0  0
 72 74  1  0  0  0
 72 73  1  0  0  0
 72148  1  0  0  0
 73149  1  0  0  0
 73150  1  0  0  0
 73155  1  0  0  0
 74 75  2  0  0  0
 74 76  1  0  0  0
M  CHG  6  48   1  52   1  58   1  68   1  73   1  76  -1
M  END
> <s_m_entry_id>
35

> <s_m_entry_name>
STS005-ligand-20230714.47

> <s_m_Source_Path>
D:\xubinbin\STS005

> <s_m_Source_File>
prime_mmgbsa_all-20230714-out.maegz

> <i_m_Source_File_Index>
35

> <s_psp_Prime_MMGBSA_Input_Structure_Hash>
6f5b834ba98fd9671e0150b1a9fd55a01c39d1916f6727043f8523ee

> <i_psp_number_heavy_atoms>
76

> <b_psp_distorted_structure>
1

> <i_psp_model_num>
0

> <r_psp_Prime_Coulomb>
-43135.7473168724

> <r_psp_Prime_Covalent>
7579.44457575582

> <r_psp_Prime_vdW>
-6882.61687432584

> <r_psp_Prime_Lipo>
-3892.13967394005

> <r_psp_Prime_Solv_GB>
-13170.7531017291

> <r_psp_Prime_Energy>
-60586.1913409652

> <s_psp_Prime_Energy_Force_Field>
S-OPLS

> <s_psp_Prime_Energy_Solvent_Model>
VSGB2.1

> <r_psp_Prime_Bond_Covalent>
955.435849805164

> <r_psp_Prime_Bond_SGB>
111447.279265128

> <r_psp_Prime_Angle_Covalent>
3211.31532686526

> <r_psp_Prime_Angle_SGB>
-44112.0721736975

> <r_psp_Prime_Torsion_Covalent>
3412.6933990854

> <r_psp_Prime_NB14_LJ>
7968.12263927158

> <r_psp_Prime_NB14_Lipo>
0

> <r_psp_Prime_NB14_Elec>
48382.9786522471

> <r_psp_Prime_NB14_SGB>
-41215.6095296259

> <r_psp_Prime_NBShort_LJ>
-14085.2322428114

> <r_psp_Prime_NBShort_Lipo>
-3892.13967394005

> <r_psp_Prime_NBShort_Elec>
-95886.6284012662

> <r_psp_Prime_NBShort_SGB>
45157.5278670105

> <r_psp_Prime_NBLong_LJ>
-765.507270786003

> <r_psp_Prime_NBLong_Lipo>
0

> <r_psp_Prime_NBLong_Elec>
4367.90243214678

> <r_psp_Prime_NBLong_SGB>
-4184.02653976769

> <r_psp_Prime_Self_SGB>
-80263.8519907765

> <r_psp_Prime_Hbond>
-776.310859707928

> <r_psp_Prime_Packing>
-136.00913152471

> <r_psp_Prime_SelfCont>
-172.058958621051

> <i_lp_mmshare_version>
54117

> <s_epik_input>
Tz1DKFtPSF0pW0NAQEhdKFtOSDJdKVtDSDJdU1NbQ0gyXVtDQEBIXShbTkhdQyg9TylbQ0gzXSlDKD1PKVtOSF1bQ0BIXShbQ0gyXVtDSDJdW0NIMl1bTkhdL0MoPU4vW0hdKVtOSDJdKUMoPU8pW05IXVtDQEhdKFtDSDJdYzFbY0hdYyhbY0hdW2NIXVtjSF0xKVtOSF0vQyhbTkgyXSk9Ti9bSF0pQyg9TylbTkhdW0NASF0oW0NIMl1bQ0gzXSlDKD1PKVtOSF1bQ0BIXShbQ0gyXVtDSDJdW0NIMl1bTkhdL0MoW05IMl0pPU4vW0hdKUMoPU8pW05IXVtDQEhdKFtDSDNdKUMoPU8pW05IXVtDQEBIXShDKD1PKVtOSDJdKVtDSDJdW0NIMl1bQ0gyXVtOSF0vQyg9Ti9bSF0pW05IMl0=

> <s_epik_cmdline>
J2VwaWtfcHl0aG9uJywgJy1waCcsICc3LjAnLCAnLXRuJywgJzgnLCAnLW1hJywgJzUwMCcsICctaW1hZScsICc8aW5maWxlLm1hZT4nLCAnLW9tYWUnLCAnPG91dGZpbGUubWFlPic=

> <r_epik_Ionization_Penalty>
  0.0182

> <r_epik_Ionization_Penalty_Charging>
  0.0182

> <r_epik_Ionization_Penalty_Neutral>
  0.0000

> <r_epik_State_Penalty>
  0.0144

> <r_epik_Charging_Adjusted_Penalty>
0.0326163289191549

> <i_epik_Tot_Q>
4

> <i_epik_Tot_abs_Q>
6

> <s_epik_Chemistry_Notes>
This compound has an imine and may undergo hydrolysis.

> <i_f3d_flags>
0

> <s_lp_Force_Field>
S-OPLS

> <r_lp_Energy>
14.328407

> <b_lp_Chiralities_Consistent>
1

> <s_lp_Variant>
077-1

> <s_i_glide_gridfile>
glide-grid_D-site

> <i_i_glide_lignum>
93

> <i_i_glide_rotatable_bonds>
47

> <r_i_docking_score>
-7.02633605733509

> <r_i_glide_ligand_efficiency>
-0.0924517902280933

> <r_i_glide_ligand_efficiency_sa>
-0.391609472889425

> <r_i_glide_ligand_efficiency_ln>
-1.31808057331145

> <r_glide_XP_GScore>
-7.04073605733509

> <r_i_glide_gscore>
-7.04073605733509

> <r_i_glide_evdw>
-45.0497627258301

> <r_i_glide_ecoul>
-28.4329948425293

> <r_i_glide_energy>
-73.4827575683594

> <r_i_glide_einternal>
13.9300098419189

> <r_i_glide_emodel>
-94.9888305664062

> <r_glide_XP_HBond>
-2.66920014926888

> <i_i_glide_confnum>
1

> <i_i_glide_posenum>
1

> <r_i_glide_eff_state_penalty>
0.0144

> <i_glide_XP_PoseRank>
1

> <s_psp_MMGBSA_moved_residues>


> <r_psp_MMGBSA_dG_Bind>
-59.3784866149435

> <r_psp_MMGBSA_dG_Bind_Coulomb>
-543.030689978441

> <r_psp_MMGBSA_dG_Bind_Covalent>
-0.206839421966833

> <r_psp_MMGBSA_dG_Bind_Hbond>
-8.48812393303081

> <r_psp_MMGBSA_dG_Bind_Lipo>
-1.22938555574956

> <r_psp_MMGBSA_dG_Bind_Packing>
0

> <r_psp_MMGBSA_dG_Bind_SelfCont>
0

> <r_psp_MMGBSA_dG_Bind_Solv_GB>
553.353861796402

> <r_psp_MMGBSA_dG_Bind_vdW>
-59.7773095221637

> <r_psp_Lig_Strain_Energy>
20.695461195764

> <r_psp_Lig_Strain_Coulomb>
4.17024043433135

> <r_psp_Lig_Strain_Covalent>
-0.206839421968709

> <r_psp_Lig_Strain_Hbond>
0

> <r_psp_Lig_Strain_Lipo>
6.20943460640794

> <r_psp_Lig_Strain_Packing>
0

> <r_psp_Lig_Strain_SelfCont>
0

> <r_psp_Lig_Strain_Solv_GB>
-2.94666827884384

> <r_psp_Lig_Strain_vdW>
13.4692938558373

> <r_psp_Ligand_Energy>
-319.939986192264

> <r_psp_Ligand_Coulomb>
-122.42498764891

> <r_psp_Ligand_Covalent>
43.8992391800177

> <r_psp_Ligand_Hbond>
0

> <r_psp_Ligand_Lipo>
-13.8615263224896

> <r_psp_Ligand_Packing>
0

> <r_psp_Ligand_SelfCont>
0

> <r_psp_Ligand_Solv_GB>
-227.762746561983

> <r_psp_Ligand_vdW>
0.210035161101089

> <r_psp_Complex_Energy>
-60586.1913409652

> <r_psp_Complex_Coulomb>
-43135.7473168724

> <r_psp_Complex_Covalent>
7579.44457575582

> <r_psp_Complex_Hbond>
-776.310859707928

> <r_psp_Complex_Lipo>
-3892.13967394005

> <r_psp_Complex_Packing>
-136.00913152471

> <r_psp_Complex_SelfCont>
-172.058958621051

> <r_psp_Complex_Solv_GB>
-13170.7531017291

> <r_psp_Complex_vdW>
-6882.61687432584

> <r_psp_Receptor_Energy>
-60206.872868158

> <r_psp_Receptor_Coulomb>
-42470.291639245

> <r_psp_Receptor_Covalent>
7535.75217599777

> <r_psp_Receptor_Hbond>
-767.822735774897

> <r_psp_Receptor_Lipo>
-3877.04876206181

> <r_psp_Receptor_Packing>
-136.00913152471

> <r_psp_Receptor_SelfCont>
-172.058958621051

> <r_psp_Receptor_Solv_GB>
-13496.3442169635

> <r_psp_Receptor_vdW>
-6823.04959996478

> <r_psp_MMGBSA_dG_Bind(NS)>
-80.0739478107062

> <r_psp_MMGBSA_dG_Bind(NS)_Coulomb>
-547.200930412771

> <r_psp_MMGBSA_dG_Bind(NS)_Covalent>
1.81898940354586e-12

> <r_psp_MMGBSA_dG_Bind(NS)_Hbond>
-8.48812393303081

> <r_psp_MMGBSA_dG_Bind(NS)_Lipo>
-7.43882016215775

> <r_psp_MMGBSA_dG_Bind(NS)_Packing>
0

> <r_psp_MMGBSA_dG_Bind(NS)_SelfCont>
0

> <r_psp_MMGBSA_dG_Bind(NS)_Solv_GB>
556.300530075247

> <r_psp_MMGBSA_dG_Bind(NS)_vdW>
-73.2466033780011

> <r_psp_Rec_Strain_Energy>
0

> <r_psp_Rec_Strain_Coulomb>
0

> <r_psp_Rec_Strain_Covalent>
0

> <r_psp_Rec_Strain_Hbond>
0

> <r_psp_Rec_Strain_Lipo>
0

> <r_psp_Rec_Strain_Packing>
0

> <r_psp_Rec_Strain_SelfCont>
0

> <r_psp_Rec_Strain_Solv_GB>
0

> <r_psp_Rec_Strain_vdW>
0

> <r_psp_Prime_MMGBSA_ligand_efficiency>
-0.781295876512415

> <r_psp_Prime_MMGBSA_ligand_efficiency_sa>
-1.17194381476862

> <r_psp_Prime_MMGBSA_ligand_efficiency_ln>
-11.1388964377937

> <Name>
77

> <s_m_subgroup_title>
prime_mmgbsa_all-20230714-out

> <s_m_subgroupid>
prime_mmgbsa_all-20230714-out

> <b_m_subgroup_collapsed>
0

$$$$
