STS005_prime_MMGBSA_result_21
                    3D
 Schrodinger Suite 2021-3.
139139  0  0  1  0            999 V2000
  197.7791  215.9971  251.7727 C   0  0  0  0  0  0
  197.1931  215.0560  251.0185 N   0  0  0  0  0  0
  195.7747  214.6525  250.9541 C   0  0  1  0  0  0
  195.0621  214.2324  252.2655 C   0  0  0  0  0  0
  195.7173  214.3767  253.4248 N   0  0  0  0  0  0
  195.2913  213.9577  254.7660 C   0  0  1  0  0  0
  195.1651  212.4266  254.9398 C   0  0  0  0  0  0
  194.3058  211.8097  254.1223 N   0  0  0  0  0  0
  193.9489  210.3914  254.1399 C   0  0  1  0  0  0
  193.2802  210.0636  255.4865 C   0  0  0  0  0  0
  193.9376  209.2149  256.2859 N   0  0  0  0  0  0
  193.5533  208.8444  257.6495 C   0  0  1  0  0  0
  193.6606  210.0369  258.6220 C   0  0  0  0  0  0
  194.8285  210.7057  258.6593 N   0  0  0  0  0  0
  195.1462  211.7067  259.6865 C   0  0  1  0  0  0
  194.9859  211.1063  261.0978 C   0  0  0  0  0  0
  194.0184  211.6597  261.8304 N   0  0  0  0  0  0
  199.2310  216.3202  251.4734 C   0  0  0  0  0  0
  197.2223  216.5649  252.7061 O   0  0  0  0  0  0
  194.9124  215.5836  250.0587 C   0  0  0  0  0  0
  194.7244  217.3450  250.5650 S   0  5  0  0  0  0
  193.9428  213.7246  252.1912 O   0  0  0  0  0  0
  196.2523  214.5787  255.7982 C   0  0  0  0  0  0
  195.8349  211.8386  255.7911 O   0  0  0  0  0  0
  193.0283  210.0252  252.9372 C   0  0  0  0  0  0
  192.2087  210.5972  255.7684 O   0  0  0  0  0  0
  192.1606  208.1477  257.6954 C   0  0  0  0  0  0
  193.4412  211.2524  263.1034 C   0  0  1  0  0  0
  192.2338  212.1830  263.2873 C   0  0  0  0  0  0
  191.7158  212.3061  264.5123 N   0  0  0  0  0  0
  190.4846  213.0562  264.7767 C   0  0  1  0  0  0
  189.7169  212.4564  265.9685 C   0  0  0  0  0  0
  192.7012  210.3180  259.3401 O   0  0  0  0  0  0
  195.6873  210.1518  261.4343 O   0  0  0  0  0  0
  192.9782  209.7820  263.0593 C   0  0  0  0  0  0
  191.7832  212.7822  262.3065 O   0  0  0  0  0  0
  188.3943  212.4935  265.9495 N   0  0  0  0  0  0
  190.3173  211.9861  266.9253 O   0  0  0  0  0  0
  190.8131  214.5578  264.9811 C   0  0  0  0  0  0
  189.6914  215.4718  264.4598 C   0  0  0  0  0  0
  196.5550  212.3081  259.4600 C   0  0  0  0  0  0
  196.9947  213.3878  260.4863 C   0  0  0  0  0  0
  196.2451  214.7265  260.3303 C   0  0  0  0  0  0
  196.5571  215.7052  261.3934 N   0  0  0  0  0  0
  196.1172  216.9826  261.4539 C   0  0  0  0  0  0
  195.3006  217.5022  260.5235 N   0  0  0  0  0  0
  196.5001  217.7638  262.4718 N   0  3  0  0  0  0
  189.7739  215.6694  262.9307 C   0  0  0  0  0  0
  188.4713  216.0310  262.3458 N   0  0  0  0  0  0
  187.5839  215.1725  261.7990 C   0  0  0  0  0  0
  186.4004  215.6325  261.3750 N   0  3  0  0  0  0
  187.8408  213.8599  261.6686 N   0  0  0  0  0  0
  191.9806  207.2387  258.9312 C   0  0  0  0  0  0
  190.5524  206.7036  259.1714 C   0  0  0  0  0  0
  189.7221  207.6108  259.9896 N   0  0  0  0  0  0
  189.6582  207.6219  261.3393 C   0  0  0  0  0  0
  190.4175  206.8192  262.1047 N   0  0  0  0  0  0
  188.8088  208.4592  261.9457 N   0  3  0  0  0  0
  193.3505  208.6853  252.2724 C   0  0  0  0  0  0
  193.6174  207.5229  253.0137 C   0  0  0  0  0  0
  193.9533  206.3316  252.3590 C   0  0  0  0  0  0
  193.9912  206.2959  250.9623 C   0  0  0  0  0  0
  193.6883  207.4340  250.2217 C   0  0  0  0  0  0
  193.3701  208.6215  250.8746 C   0  0  0  0  0  0
  194.2140  205.1375  253.0995 N   0  0  0  0  0  0
  195.3124  204.3721  253.0420 C   0  0  0  0  0  0
  195.3079  203.1979  253.6419 N   0  3  0  0  0  0
  196.4330  204.7016  252.4183 N   0  0  0  0  0  0
  197.7786  214.5677  250.3492 H   0  0  0  0  0  0
  195.8261  213.7067  250.4117 H   0  0  0  0  0  0
  196.5310  214.9833  253.3756 H   0  0  0  0  0  0
  194.2983  214.3765  254.9391 H   0  0  0  0  0  0
  193.8471  212.3905  253.4233 H   0  0  0  0  0  0
  194.8961  209.8542  254.0454 H   0  0  0  0  0  0
  194.8410  208.8895  255.9758 H   0  0  0  0  0  0
  194.3007  208.1155  257.9648 H   0  0  0  0  0  0
  195.5268  210.5344  257.9501 H   0  0  0  0  0  0
  194.4111  212.5032  259.5597 H   0  0  0  0  0  0
  193.4222  212.3570  261.3940 H   0  0  0  0  0  0
  199.6447  215.6484  250.7212 H   0  0  0  0  0  0
  199.8170  216.2486  252.3893 H   0  0  0  0  0  0
  199.3076  217.3413  251.1000 H   0  0  0  0  0  0
  195.3268  215.5545  249.0501 H   0  0  0  0  0  0
  193.9172  215.1482  249.9487 H   0  0  0  0  0  0
  195.9167  214.3700  256.8143 H   0  0  0  0  0  0
  197.2623  214.1773  255.6997 H   0  0  0  0  0  0
  196.3077  215.6624  255.6908 H   0  0  0  0  0  0
  191.9656  210.0606  253.1881 H   0  0  0  0  0  0
  193.1491  210.7969  252.1739 H   0  0  0  0  0  0
  191.3653  208.8952  257.6482 H   0  0  0  0  0  0
  192.0348  207.5286  256.8068 H   0  0  0  0  0  0
  194.1579  211.4041  263.9068 H   0  0  0  0  0  0
  192.1226  211.8475  265.3149 H   0  0  0  0  0  0
  189.8459  212.9385  263.8993 H   0  0  0  0  0  0
  192.4210  209.5095  263.9558 H   0  0  0  0  0  0
  192.3300  209.5970  262.2002 H   0  0  0  0  0  0
  193.8261  209.1004  262.9867 H   0  0  0  0  0  0
  187.8884  212.8803  265.1712 H   0  0  0  0  0  0
  187.9055  212.1191  266.7448 H   0  0  0  0  0  0
  191.0297  214.7610  266.0323 H   0  0  0  0  0  0
  191.7260  214.8125  264.4457 H   0  0  0  0  0  0
  188.7052  215.1463  264.7946 H   0  0  0  0  0  0
  189.8527  216.4459  264.9251 H   0  0  0  0  0  0
  197.2885  211.5033  259.4718 H   0  0  0  0  0  0
  196.6109  212.7233  258.4526 H   0  0  0  0  0  0
  196.9948  213.0289  261.5181 H   0  0  0  0  0  0
  198.0460  213.5876  260.2719 H   0  0  0  0  0  0
  196.6236  215.1980  259.4221 H   0  0  0  0  0  0
  195.1732  214.5966  260.1843 H   0  0  0  0  0  0
  197.1576  215.3759  262.1402 H   0  0  0  0  0  0
  194.9772  218.4562  260.5928 H   0  0  0  0  0  0
  194.9948  216.9401  259.7432 H   0  0  0  0  0  0
  196.1800  218.7198  262.5739 H   0  0  0  0  0  0
  190.3955  216.5465  262.7441 H   0  0  0  0  0  0
  190.2730  214.8542  262.4080 H   0  0  0  0  0  0
  188.2156  217.0062  262.4157 H   0  0  0  0  0  0
  185.7103  214.9812  261.0137 H   0  0  0  0  0  0
  187.1262  213.2323  261.3072 H   0  0  0  0  0  0
  188.7422  213.4770  261.9141 H   0  0  0  0  0  0
  192.6883  206.4176  258.9123 H   0  0  0  0  0  0
  192.2718  207.8208  259.8072 H   0  0  0  0  0  0
  190.0314  206.6587  258.2137 H   0  0  0  0  0  0
  190.5535  205.6802  259.5481 H   0  0  0  0  0  0
  189.1729  208.2985  259.4873 H   0  0  0  0  0  0
  190.3377  206.8291  263.1105 H   0  0  0  0  0  0
  191.1195  206.2179  261.6826 H   0  0  0  0  0  0
  188.7229  208.4878  262.9503 H   0  0  0  0  0  0
  193.5705  207.5476  254.0912 H   0  0  0  0  0  0
  194.2348  205.3834  250.4369 H   0  0  0  0  0  0
  193.7030  207.3956  249.1426 H   0  0  0  0  0  0
  193.1501  209.4978  250.2823 H   0  0  0  0  0  0
  193.5294  204.8648  253.7866 H   0  0  0  0  0  0
  196.1865  202.7188  253.7863 H   0  0  0  0  0  0
  197.2030  204.0468  252.3783 H   0  0  0  0  0  0
  196.5592  205.6592  252.0993 H   0  0  0  0  0  0
  186.1610  216.6111  261.4399 H   0  0  0  0  0  0
  197.0872  217.3890  263.2144 H   0  0  0  0  0  0
  188.2187  209.0750  261.3881 H   0  0  0  0  0  0
  194.4393  202.7242  253.8358 H   0  0  0  0  0  0
  1  2  1  0  0  0
  1 18  1  0  0  0
  1 19  2  0  0  0
  2  3  1  0  0  0
  2 69  1  0  0  0
  3  4  1  0  0  0
  3 20  1  0  0  0
  3 70  1  0  0  0
  4  5  1  0  0  0
  4 22  2  0  0  0
  5  6  1  0  0  0
  5 71  1  0  0  0
  6  7  1  0  0  0
  6 23  1  0  0  0
  6 72  1  0  0  0
  7  8  1  0  0  0
  7 24  2  0  0  0
  8  9  1  0  0  0
  8 73  1  0  0  0
  9 10  1  0  0  0
  9 25  1  0  0  0
  9 74  1  0  0  0
 10 11  1  0  0  0
 10 26  2  0  0  0
 11 12  1  0  0  0
 11 75  1  0  0  0
 12 13  1  0  0  0
 12 27  1  0  0  0
 12 76  1  0  0  0
 13 14  1  0  0  0
 13 33  2  0  0  0
 14 15  1  0  0  0
 14 77  1  0  0  0
 15 16  1  0  0  0
 15 41  1  0  0  0
 15 78  1  0  0  0
 16 17  1  0  0  0
 16 34  2  0  0  0
 17 28  1  0  0  0
 17 79  1  0  0  0
 18 80  1  0  0  0
 18 81  1  0  0  0
 18 82  1  0  0  0
 20 21  1  0  0  0
 20 83  1  0  0  0
 20 84  1  0  0  0
 23 85  1  0  0  0
 23 86  1  0  0  0
 23 87  1  0  0  0
 25 59  1  0  0  0
 25 88  1  0  0  0
 25 89  1  0  0  0
 27 53  1  0  0  0
 27 90  1  0  0  0
 27 91  1  0  0  0
 28 29  1  0  0  0
 28 35  1  0  0  0
 28 92  1  0  0  0
 29 30  1  0  0  0
 29 36  2  0  0  0
 30 31  1  0  0  0
 30 93  1  0  0  0
 31 32  1  0  0  0
 31 39  1  0  0  0
 31 94  1  0  0  0
 32 37  1  0  0  0
 32 38  2  0  0  0
 35 95  1  0  0  0
 35 96  1  0  0  0
 35 97  1  0  0  0
 37 98  1  0  0  0
 37 99  1  0  0  0
 39 40  1  0  0  0
 39100  1  0  0  0
 39101  1  0  0  0
 40 48  1  0  0  0
 40102  1  0  0  0
 40103  1  0  0  0
 41 42  1  0  0  0
 41104  1  0  0  0
 41105  1  0  0  0
 42 43  1  0  0  0
 42106  1  0  0  0
 42107  1  0  0  0
 43 44  1  0  0  0
 43108  1  0  0  0
 43109  1  0  0  0
 44 45  1  0  0  0
 44110  1  0  0  0
 45 46  1  0  0  0
 45 47  2  0  0  0
 46111  1  0  0  0
 46112  1  0  0  0
 47113  1  0  0  0
 47137  1  0  0  0
 48 49  1  0  0  0
 48114  1  0  0  0
 48115  1  0  0  0
 49 50  1  0  0  0
 49116  1  0  0  0
 50 51  2  0  0  0
 50 52  1  0  0  0
 51117  1  0  0  0
 51136  1  0  0  0
 52118  1  0  0  0
 52119  1  0  0  0
 53 54  1  0  0  0
 53120  1  0  0  0
 53121  1  0  0  0
 54 55  1  0  0  0
 54122  1  0  0  0
 54123  1  0  0  0
 55 56  1  0  0  0
 55124  1  0  0  0
 56 57  1  0  0  0
 56 58  2  0  0  0
 57125  1  0  0  0
 57126  1  0  0  0
 58127  1  0  0  0
 58138  1  0  0  0
 59 60  2  0  0  0
 59 64  1  0  0  0
 60 61  1  0  0  0
 60128  1  0  0  0
 61 62  2  0  0  0
 61 65  1  0  0  0
 62 63  1  0  0  0
 62129  1  0  0  0
 63 64  2  0  0  0
 63130  1  0  0  0
 64131  1  0  0  0
 65 66  1  0  0  0
 65132  1  0  0  0
 66 67  2  0  0  0
 66 68  1  0  0  0
 67133  1  0  0  0
 67139  1  0  0  0
 68134  1  0  0  0
 68135  1  0  0  0
M  CHG  5  21  -1  47   1  51   1  58   1  67   1
M  END
> <s_m_entry_id>
121

> <s_m_entry_name>
STS005-ligand-20230714.20

> <s_m_Source_Path>
D:\xubinbin\STS005

> <s_m_Source_File>
prime_mmgbsa_all-20230714-out.maegz

> <i_m_Source_File_Index>
121

> <s_psp_Prime_MMGBSA_Input_Structure_Hash>
fb732b4630272790065ae4bfad876af43bfdc95995881dff98e734cc

> <i_psp_number_heavy_atoms>
68

> <b_psp_distorted_structure>
1

> <i_psp_model_num>
0

> <r_psp_Prime_Coulomb>
-43117.5599218868

> <r_psp_Prime_Covalent>
7581.30895876761

> <r_psp_Prime_vdW>
-6874.29398600318

> <r_psp_Prime_Lipo>
-3892.07805502663

> <r_psp_Prime_Solv_GB>
-13191.3550366777

> <r_psp_Prime_Energy>
-60579.197193804

> <s_psp_Prime_Energy_Force_Field>
S-OPLS

> <s_psp_Prime_Energy_Solvent_Model>
VSGB2.1

> <r_psp_Prime_Bond_Covalent>
956.662525050136

> <r_psp_Prime_Bond_SGB>
111417.978764673

> <r_psp_Prime_Angle_Covalent>
3211.85425104583

> <r_psp_Prime_Angle_SGB>
-44092.8688418626

> <r_psp_Prime_Torsion_Covalent>
3412.79218267165

> <r_psp_Prime_NB14_LJ>
7962.87368069386

> <r_psp_Prime_NB14_Lipo>
0

> <r_psp_Prime_NB14_Elec>
48375.2685854287

> <r_psp_Prime_NB14_SGB>
-41210.4097489017

> <r_psp_Prime_NBShort_LJ>
-14071.6878608118

> <r_psp_Prime_NBShort_Lipo>
-3892.07805502663

> <r_psp_Prime_NBShort_Elec>
-95926.9874822218

> <r_psp_Prime_NBShort_SGB>
45186.5115848035

> <r_psp_Prime_NBLong_LJ>
-765.479805885217

> <r_psp_Prime_NBLong_Lipo>
0

> <r_psp_Prime_NBLong_Elec>
4434.15897490634

> <r_psp_Prime_NBLong_SGB>
-4247.11021815619

> <r_psp_Prime_Self_SGB>
-80245.4565772341

> <r_psp_Prime_Hbond>
-777.149120116097

> <r_psp_Prime_Packing>
-136.011074240263

> <r_psp_Prime_SelfCont>
-172.058958621051

> <Clean Energy>
134.025

> <i_lp_mmshare_version>
54117

> <s_epik_input>
W0NIM11DKD1PKVtOSF1bQ0BIXShbQ0gyXVtTSF0pQyg9TylbTkhdW0NASF0oW0NIM10pQyg9TylbTkhdW0NASF0oW0NIMl1jMVtjSF1jKFtjSF1bY0hdW2NIXTEpW05IXS9DKD1OL1tIXSlbTkgyXSlDKD1PKVtOSF1bQ0BIXShbQ0gyXVtDSDJdW0NIMl1bTkhdL0MoW05IMl0pPU4vW0hdKUMoPU8pW05IXVtDQEhdKFtDSDJdW0NIMl1bQ0gyXVtOSF0vQyhbTkgyXSk9Ti9bSF0pQyg9TylbTkhdW0NASF0oW0NIM10pQyg9TylbTkhdW0NAQEhdKEMoPU8pW05IMl0pW0NIMl1bQ0gyXVtDSDJdW05IXS9DKD1OL1tIXSlbTkgyXQ==

> <s_epik_cmdline>
J2VwaWtfcHl0aG9uJywgJy1waCcsICc3LjAnLCAnLXRuJywgJzgnLCAnLW1hJywgJzUwMCcsICctaW1hZScsICc8aW5maWxlLm1hZT4nLCAnLW9tYWUnLCAnPG91dGZpbGUubWFlPic=

> <r_epik_Ionization_Penalty>
  2.5105

> <r_epik_Ionization_Penalty_Charging>
  2.5105

> <r_epik_Ionization_Penalty_Neutral>
  0.0000

> <r_epik_State_Penalty>
  2.6760

> <r_epik_Charging_Adjusted_Penalty>
5.18650054022169

> <i_epik_Tot_Q>
3

> <i_epik_Tot_abs_Q>
5

> <s_epik_Chemistry_Notes>
This compound has an imine and may undergo hydrolysis.

> <i_f3d_flags>
0

> <s_lp_Force_Field>
S-OPLS

> <r_lp_Energy>
15.579179

> <b_lp_Chiralities_Consistent>
1

> <s_lp_Variant>
033-2

> <s_i_glide_gridfile>
glide-grid_D-site

> <i_i_glide_lignum>
39

> <i_i_glide_rotatable_bonds>
41

> <r_i_docking_score>
-4.50316287945242

> <r_i_glide_ligand_efficiency>
-0.0662229835213591

> <r_i_glide_ligand_efficiency_sa>
-0.270299378173967

> <r_i_glide_ligand_efficiency_ln>
-0.862756247104818

> <r_glide_XP_GScore>
-7.17916287945242

> <r_i_glide_gscore>
-7.17916287945242

> <r_i_glide_evdw>
-40.1878242492676

> <r_i_glide_ecoul>
-41.298526763916

> <r_i_glide_energy>
-81.4863510131836

> <r_i_glide_einternal>
20.7120227813721

> <r_i_glide_emodel>
-115.163129066634

> <r_glide_XP_HBond>
-3.48846705085087

> <i_i_glide_confnum>
1

> <i_i_glide_posenum>
26

> <r_i_glide_eff_state_penalty>
2.676

> <i_glide_XP_PoseRank>
1

> <s_psp_MMGBSA_moved_residues>


> <r_psp_MMGBSA_dG_Bind>
-68.6098709900034

> <r_psp_MMGBSA_dG_Bind_Coulomb>
-510.694551634078

> <r_psp_MMGBSA_dG_Bind_Covalent>
12.297919509856

> <r_psp_MMGBSA_dG_Bind_Hbond>
-9.32638434120008

> <r_psp_MMGBSA_dG_Bind_Lipo>
-9.34461144388388

> <r_psp_MMGBSA_dG_Bind_Packing>
-0.001942715552957

> <r_psp_MMGBSA_dG_Bind_SelfCont>
0

> <r_psp_MMGBSA_dG_Bind_Solv_GB>
517.559171138393

> <r_psp_MMGBSA_dG_Bind_vdW>
-69.0994715035631

> <r_psp_Lig_Strain_Energy>
18.7535352214313

> <r_psp_Lig_Strain_Coulomb>
-8.06441464912507

> <r_psp_Lig_Strain_Covalent>
12.2979195098539

> <r_psp_Lig_Strain_Hbond>
0

> <r_psp_Lig_Strain_Lipo>
1.24215443553888

> <r_psp_Lig_Strain_Packing>
0

> <r_psp_Lig_Strain_SelfCont>
0

> <r_psp_Lig_Strain_Solv_GB>
7.16731025741751

> <r_psp_Lig_Strain_vdW>
6.11056566774614

> <r_psp_Ligand_Energy>
-303.714454656053

> <r_psp_Ligand_Coulomb>
-136.573731007666

> <r_psp_Ligand_Covalent>
33.258863259984

> <r_psp_Ligand_Hbond>
0

> <r_psp_Ligand_Lipo>
-5.68468152094019

> <r_psp_Ligand_Packing>
0

> <r_psp_Ligand_SelfCont>
0

> <r_psp_Ligand_Solv_GB>
-212.56999085259

> <r_psp_Ligand_vdW>
17.8550854651586

> <r_psp_Complex_Energy>
-60579.197193804

> <r_psp_Complex_Coulomb>
-43117.5599218868

> <r_psp_Complex_Covalent>
7581.30895876761

> <r_psp_Complex_Hbond>
-777.149120116097

> <r_psp_Complex_Lipo>
-3892.07805502663

> <r_psp_Complex_Packing>
-136.011074240263

> <r_psp_Complex_SelfCont>
-172.058958621051

> <r_psp_Complex_Solv_GB>
-13191.3550366777

> <r_psp_Complex_vdW>
-6874.29398600318

> <r_psp_Receptor_Energy>
-60206.872868158

> <r_psp_Receptor_Coulomb>
-42470.291639245

> <r_psp_Receptor_Covalent>
7535.75217599777

> <r_psp_Receptor_Hbond>
-767.822735774897

> <r_psp_Receptor_Lipo>
-3877.04876206181

> <r_psp_Receptor_Packing>
-136.00913152471

> <r_psp_Receptor_SelfCont>
-172.058958621051

> <r_psp_Receptor_Solv_GB>
-13496.3442169635

> <r_psp_Receptor_vdW>
-6823.04959996478

> <r_psp_MMGBSA_dG_Bind(NS)>
-87.3634062114361

> <r_psp_MMGBSA_dG_Bind(NS)_Coulomb>
-502.630136984953

> <r_psp_MMGBSA_dG_Bind(NS)_Covalent>
1.81898940354586e-12

> <r_psp_MMGBSA_dG_Bind(NS)_Hbond>
-9.32638434120008

> <r_psp_MMGBSA_dG_Bind(NS)_Lipo>
-10.5867658794227

> <r_psp_MMGBSA_dG_Bind(NS)_Packing>
-0.001942715552957

> <r_psp_MMGBSA_dG_Bind(NS)_SelfCont>
0

> <r_psp_MMGBSA_dG_Bind(NS)_Solv_GB>
510.391860880976

> <r_psp_MMGBSA_dG_Bind(NS)_vdW>
-75.2100371713095

> <r_psp_Rec_Strain_Energy>
0

> <r_psp_Rec_Strain_Coulomb>
0

> <r_psp_Rec_Strain_Covalent>
0

> <r_psp_Rec_Strain_Hbond>
0

> <r_psp_Rec_Strain_Lipo>
0

> <r_psp_Rec_Strain_Packing>
0

> <r_psp_Rec_Strain_SelfCont>
0

> <r_psp_Rec_Strain_Solv_GB>
0

> <r_psp_Rec_Strain_vdW>
0

> <r_psp_Prime_MMGBSA_ligand_efficiency>
-1.00896869102946

> <r_psp_Prime_MMGBSA_ligand_efficiency_sa>
-1.51345303654419

> <r_psp_Prime_MMGBSA_ligand_efficiency_ln>
-13.1448931327305

> <s_m_subgroup_title>
prime_mmgbsa_all-20230714-out

> <s_m_subgroupid>
prime_mmgbsa_all-20230714-out

> <b_m_subgroup_collapsed>
0

$$$$
