STS005_prime_MMGBSA_result_36
                    3D
 Schrodinger Suite 2021-3.
140140  0  0  1  0            999 V2000
  194.8906  201.6409  253.8279 C   0  0  0  0  0  0
  195.6966  202.6656  254.1029 N   0  0  0  0  0  0
  195.5311  204.0194  253.6025 C   0  0  1  0  0  0
  196.3233  204.9391  254.5507 C   0  0  0  0  0  0
  196.2574  206.2486  254.2903 N   0  0  0  0  0  0
  196.7198  207.3734  255.1107 C   0  0  1  0  0  0
  195.8090  207.5962  256.3198 C   0  0  0  0  0  0
  195.4322  208.8482  256.5662 N   0  0  0  0  0  0
  194.6800  209.2356  257.7492 C   0  0  1  0  0  0
  194.9606  210.7147  258.0147 C   0  0  0  0  0  0
  194.5992  211.1522  259.2214 N   0  0  0  0  0  0
  194.8611  212.4899  259.7257 C   0  0  1  0  0  0
  193.5017  213.1405  260.0139 C   0  0  0  0  0  0
  193.2073  213.4428  261.2782 N   0  0  0  0  0  0
  192.0384  214.1816  261.7334 C   0  0  1  0  0  0
  191.9163  213.9308  263.2472 C   0  0  0  0  0  0
  190.8038  214.3920  263.8390 N   0  0  0  0  0  0
  195.2633  200.2931  254.4129 C   0  0  0  0  0  0
  193.8916  201.7478  253.1238 O   0  0  0  0  0  0
  195.9667  204.1416  252.1219 C   0  0  0  0  0  0
  194.9330  205.3231  251.2159 S   0  0  0  0  0  0
  196.9432  204.4460  255.4993 O   0  0  0  0  0  0
  198.1909  207.2220  255.5411 C   0  0  0  0  0  0
  195.4837  206.6597  257.0395 O   0  0  0  0  0  0
  193.1764  208.8376  257.7241 C   0  0  0  0  0  0
  192.3846  209.4502  256.5774 C   0  0  0  0  0  0
  195.5261  211.3983  257.1604 O   0  0  0  0  0  0
  195.8732  212.3608  260.8954 C   0  0  0  0  0  0
  190.3966  214.2038  265.2394 C   0  0  1  0  0  0
  190.1339  212.7313  265.5961 C   0  0  0  0  0  0
  189.5420  212.0181  264.6293 N   0  0  0  0  0  0
  188.9367  210.7044  264.8134 C   0  0  1  0  0  0
  187.4293  210.7892  264.4934 C   0  0  0  0  0  0
  192.7410  213.3603  259.0735 O   0  0  0  0  0  0
  192.8108  213.3053  263.8214 O   0  0  0  0  0  0
  191.3431  214.9137  266.2235 C   0  0  0  0  0  0
  190.4153  212.2978  266.7160 O   0  0  0  0  0  0
  187.0443  210.9172  263.2298 N   0  0  0  0  0  0
  186.6134  210.7697  265.4074 O   0  0  0  0  0  0
  189.7207  209.6290  264.0283 C   0  0  0  0  0  0
  189.2111  208.2034  264.3092 C   0  0  0  0  0  0
  192.1993  215.6682  261.3133 C   0  0  0  0  0  0
  191.0731  216.6360  261.7161 C   0  0  0  0  0  0
  191.1676  217.9699  260.9571 C   0  0  0  0  0  0
  190.2220  218.9653  261.4858 N   0  0  0  0  0  0
  188.9147  219.1307  261.2061 C   0  0  0  0  0  0
  188.2625  218.3580  260.3231 N   0  0  0  0  0  0
  188.2451  220.1009  261.8409 N   0  3  0  0  0  0
  190.1719  207.1105  263.8201 C   0  0  0  0  0  0
  189.8247  205.8079  264.4115 N   0  0  0  0  0  0
  190.6620  204.7928  264.6941 C   0  0  0  0  0  0
  190.1735  203.7042  265.2988 N   0  3  0  0  0  0
  191.9662  204.8280  264.3860 N   0  0  0  0  0  0
  192.2575  208.7599  255.3696 C   0  0  0  0  0  0
  191.5478  209.3211  254.3013 C   0  0  0  0  0  0
  190.9593  210.5908  254.4521 C   0  0  0  0  0  0
  191.0732  211.2647  255.6686 C   0  0  0  0  0  0
  191.7814  210.7011  256.7267 C   0  0  0  0  0  0
  191.5030  208.6028  253.0612 N   0  0  0  0  0  0
  192.5388  208.3433  252.2548 C   0  0  0  0  0  0
  193.7739  208.7791  252.4676 N   0  0  0  0  0  0
  192.3329  207.6137  251.1775 N   0  3  0  0  0  0
  190.1152  211.3909  253.1701 Cl  0  0  0  0  0  0
  196.2745  213.6284  261.6739 C   0  0  0  0  0  0
  196.7814  214.8181  260.8418 C   0  0  0  0  0  0
  196.9271  216.0080  261.6982 N   0  0  0  0  0  0
  196.3624  217.2227  261.5580 C   0  0  0  0  0  0
  196.5965  218.1319  262.5091 N   0  3  0  0  0  0
  195.5773  217.5460  260.5190 N   0  0  0  0  0  0
  196.4869  202.5846  254.7312 H   0  0  0  0  0  0
  194.4748  204.2788  253.7026 H   0  0  0  0  0  0
  195.8394  206.5183  253.4080 H   0  0  0  0  0  0
  196.6511  208.2591  254.4791 H   0  0  0  0  0  0
  195.7691  209.6307  256.0180 H   0  0  0  0  0  0
  195.1326  208.7066  258.5846 H   0  0  0  0  0  0
  194.0574  210.5510  259.8220 H   0  0  0  0  0  0
  195.3170  213.1023  258.9452 H   0  0  0  0  0  0
  193.8007  213.1493  262.0455 H   0  0  0  0  0  0
  191.1546  213.7572  261.2523 H   0  0  0  0  0  0
  190.1573  214.9157  263.2707 H   0  0  0  0  0  0
  196.2534  200.3024  254.8684 H   0  0  0  0  0  0
  195.2605  199.5528  253.6139 H   0  0  0  0  0  0
  194.5300  200.0028  255.1629 H   0  0  0  0  0  0
  197.0160  204.4315  252.0368 H   0  0  0  0  0  0
  195.8642  203.1841  251.6121 H   0  0  0  0  0  0
  193.8350  204.5398  251.1191 H   0  0  0  0  0  0
  198.5641  208.1492  255.9765 H   0  0  0  0  0  0
  198.3191  206.4388  256.2884 H   0  0  0  0  0  0
  198.8224  206.9724  254.6901 H   0  0  0  0  0  0
  193.0849  207.7501  257.6679 H   0  0  0  0  0  0
  192.6813  209.0762  258.6663 H   0  0  0  0  0  0
  195.5161  211.6255  261.6193 H   0  0  0  0  0  0
  196.7854  211.9394  260.4736 H   0  0  0  0  0  0
  189.4262  214.6914  265.3378 H   0  0  0  0  0  0
  189.3254  212.4819  263.7623 H   0  0  0  0  0  0
  189.0185  210.4418  265.8670 H   0  0  0  0  0  0
  191.0475  214.7455  267.2591 H   0  0  0  0  0  0
  192.3650  214.5555  266.1191 H   0  0  0  0  0  0
  191.3443  215.9910  266.0652 H   0  0  0  0  0  0
  187.6772  210.8736  262.4465 H   0  0  0  0  0  0
  186.0590  211.0263  263.0519 H   0  0  0  0  0  0
  189.6954  209.8305  262.9564 H   0  0  0  0  0  0
  190.7675  209.6959  264.3300 H   0  0  0  0  0  0
  188.9566  208.0598  265.3594 H   0  0  0  0  0  0
  188.2736  208.0973  263.7590 H   0  0  0  0  0  0
  193.1395  216.0502  261.7120 H   0  0  0  0  0  0
  192.3015  215.7121  260.2281 H   0  0  0  0  0  0
  190.1270  216.1619  261.4508 H   0  0  0  0  0  0
  191.0510  216.8158  262.7929 H   0  0  0  0  0  0
  192.1858  218.3608  260.9639 H   0  0  0  0  0  0
  190.9145  217.8120  259.9086 H   0  0  0  0  0  0
  190.6289  219.5494  262.2120 H   0  0  0  0  0  0
  187.2804  218.4964  260.1336 H   0  0  0  0  0  0
  188.7503  217.6196  259.8375 H   0  0  0  0  0  0
  187.2637  220.2572  261.6622 H   0  0  0  0  0  0
  190.0213  206.9649  262.7494 H   0  0  0  0  0  0
  191.2158  207.3954  263.9519 H   0  0  0  0  0  0
  188.8399  205.6660  264.5958 H   0  0  0  0  0  0
  190.7593  202.8874  265.4151 H   0  0  0  0  0  0
  192.5300  203.9990  264.5156 H   0  0  0  0  0  0
  192.3391  205.5791  263.8219 H   0  0  0  0  0  0
  192.7295  207.7905  255.2665 H   0  0  0  0  0  0
  190.6241  212.2398  255.7888 H   0  0  0  0  0  0
  191.8691  211.2518  257.6533 H   0  0  0  0  0  0
  190.6026  208.2834  252.7261 H   0  0  0  0  0  0
  194.5362  208.5693  251.8338 H   0  0  0  0  0  0
  193.9532  209.3619  253.2703 H   0  0  0  0  0  0
  193.1075  207.1212  250.7574 H   0  0  0  0  0  0
  195.5290  213.9331  262.4096 H   0  0  0  0  0  0
  197.1277  213.2959  262.2679 H   0  0  0  0  0  0
  197.8077  214.6032  260.5366 H   0  0  0  0  0  0
  196.2248  214.9774  259.9199 H   0  0  0  0  0  0
  197.4761  215.8592  262.5397 H   0  0  0  0  0  0
  196.1823  219.0566  262.5083 H   0  0  0  0  0  0
  195.1717  218.4676  260.4466 H   0  0  0  0  0  0
  195.3963  216.8738  259.7886 H   0  0  0  0  0  0
  189.2050  203.6596  265.5781 H   0  0  0  0  0  0
  188.7162  220.6930  262.5110 H   0  0  0  0  0  0
  197.1402  217.8727  263.3270 H   0  0  0  0  0  0
  191.3883  207.3558  250.9040 H   0  0  0  0  0  0
  1  2  1  0  0  0
  1 18  1  0  0  0
  1 19  2  0  0  0
  2  3  1  0  0  0
  2 70  1  0  0  0
  3  4  1  0  0  0
  3 20  1  0  0  0
  3 71  1  0  0  0
  4  5  1  0  0  0
  4 22  2  0  0  0
  5  6  1  0  0  0
  5 72  1  0  0  0
  6  7  1  0  0  0
  6 23  1  0  0  0
  6 73  1  0  0  0
  7  8  1  0  0  0
  7 24  2  0  0  0
  8  9  1  0  0  0
  8 74  1  0  0  0
  9 10  1  0  0  0
  9 25  1  0  0  0
  9 75  1  0  0  0
 10 11  1  0  0  0
 10 27  2  0  0  0
 11 12  1  0  0  0
 11 76  1  0  0  0
 12 13  1  0  0  0
 12 28  1  0  0  0
 12 77  1  0  0  0
 13 14  1  0  0  0
 13 34  2  0  0  0
 14 15  1  0  0  0
 14 78  1  0  0  0
 15 16  1  0  0  0
 15 42  1  0  0  0
 15 79  1  0  0  0
 16 17  1  0  0  0
 16 35  2  0  0  0
 17 29  1  0  0  0
 17 80  1  0  0  0
 18 81  1  0  0  0
 18 82  1  0  0  0
 18 83  1  0  0  0
 20 21  1  0  0  0
 20 84  1  0  0  0
 20 85  1  0  0  0
 21 86  1  0  0  0
 23 87  1  0  0  0
 23 88  1  0  0  0
 23 89  1  0  0  0
 25 26  1  0  0  0
 25 90  1  0  0  0
 25 91  1  0  0  0
 26 54  2  0  0  0
 26 58  1  0  0  0
 28 64  1  0  0  0
 28 92  1  0  0  0
 28 93  1  0  0  0
 29 30  1  0  0  0
 29 36  1  0  0  0
 29 94  1  0  0  0
 30 31  1  0  0  0
 30 37  2  0  0  0
 31 32  1  0  0  0
 31 95  1  0  0  0
 32 33  1  0  0  0
 32 40  1  0  0  0
 32 96  1  0  0  0
 33 38  1  0  0  0
 33 39  2  0  0  0
 36 97  1  0  0  0
 36 98  1  0  0  0
 36 99  1  0  0  0
 38100  1  0  0  0
 38101  1  0  0  0
 40 41  1  0  0  0
 40102  1  0  0  0
 40103  1  0  0  0
 41 49  1  0  0  0
 41104  1  0  0  0
 41105  1  0  0  0
 42 43  1  0  0  0
 42106  1  0  0  0
 42107  1  0  0  0
 43 44  1  0  0  0
 43108  1  0  0  0
 43109  1  0  0  0
 44 45  1  0  0  0
 44110  1  0  0  0
 44111  1  0  0  0
 45 46  1  0  0  0
 45112  1  0  0  0
 46 47  1  0  0  0
 46 48  2  0  0  0
 47113  1  0  0  0
 47114  1  0  0  0
 48115  1  0  0  0
 48138  1  0  0  0
 49 50  1  0  0  0
 49116  1  0  0  0
 49117  1  0  0  0
 50 51  1  0  0  0
 50118  1  0  0  0
 51 52  2  0  0  0
 51 53  1  0  0  0
 52119  1  0  0  0
 52137  1  0  0  0
 53120  1  0  0  0
 53121  1  0  0  0
 54 55  1  0  0  0
 54122  1  0  0  0
 55 56  2  0  0  0
 55 59  1  0  0  0
 56 57  1  0  0  0
 56 63  1  0  0  0
 57 58  2  0  0  0
 57123  1  0  0  0
 58124  1  0  0  0
 59 60  1  0  0  0
 59125  1  0  0  0
 60 61  1  0  0  0
 60 62  2  0  0  0
 61126  1  0  0  0
 61127  1  0  0  0
 62128  1  0  0  0
 62140  1  0  0  0
 64 65  1  0  0  0
 64129  1  0  0  0
 64130  1  0  0  0
 65 66  1  0  0  0
 65131  1  0  0  0
 65132  1  0  0  0
 66 67  1  0  0  0
 66133  1  0  0  0
 67 68  2  0  0  0
 67 69  1  0  0  0
 68134  1  0  0  0
 68139  1  0  0  0
 69135  1  0  0  0
 69136  1  0  0  0
M  CHG  4  48   1  52   1  62   1  68   1
M  END
> <s_m_entry_id>
7

> <s_m_entry_name>
STS005-ligand-20230714.35

> <s_m_Source_Path>
D:\xubinbin\STS005

> <s_m_Source_File>
prime_mmgbsa_all-20230714-out.maegz

> <i_m_Source_File_Index>
7

> <s_psp_Prime_MMGBSA_Input_Structure_Hash>
915d5346cf062c879aacc52424e74b455cdde548d7d1281c03b66e72

> <i_psp_number_heavy_atoms>
69

> <b_psp_distorted_structure>
1

> <i_psp_model_num>
0

> <r_psp_Prime_Coulomb>
-43202.738714354

> <r_psp_Prime_Covalent>
7582.13351622627

> <r_psp_Prime_vdW>
-6886.38588135706

> <r_psp_Prime_Lipo>
-3893.57241205836

> <r_psp_Prime_Solv_GB>
-13067.7272220353

> <r_psp_Prime_Energy>
-60553.4441944089

> <s_psp_Prime_Energy_Force_Field>
S-OPLS

> <s_psp_Prime_Energy_Solvent_Model>
VSGB2.1

> <r_psp_Prime_Bond_Covalent>
955.015659729763

> <r_psp_Prime_Bond_SGB>
111315.01126874

> <r_psp_Prime_Angle_Covalent>
3211.33952208843

> <r_psp_Prime_Angle_SGB>
-44041.9192732496

> <r_psp_Prime_Torsion_Covalent>
3415.77833440808

> <r_psp_Prime_NB14_LJ>
7963.076697179

> <r_psp_Prime_NB14_Lipo>
0

> <r_psp_Prime_NB14_Elec>
48388.9725513505

> <r_psp_Prime_NB14_SGB>
-41209.0130391146

> <r_psp_Prime_NBShort_LJ>
-14083.7991261278

> <r_psp_Prime_NBShort_Lipo>
-3893.57241205836

> <r_psp_Prime_NBShort_Elec>
-95961.9715279825

> <r_psp_Prime_NBShort_SGB>
45210.0022699703

> <r_psp_Prime_NBLong_LJ>
-765.663452408234

> <r_psp_Prime_NBLong_Lipo>
0

> <r_psp_Prime_NBLong_Elec>
4370.26026227805

> <r_psp_Prime_NBLong_SGB>
-4181.17712095273

> <r_psp_Prime_Self_SGB>
-80160.6313274289

> <r_psp_Prime_Hbond>
-777.084414150824

> <r_psp_Prime_Packing>
-136.010108058618

> <r_psp_Prime_SelfCont>
-172.058958621051

> <i_lp_mmshare_version>
54117

> <s_epik_input>
W0NIM11DKD1PKVtOSF1bQ0BIXShbQ0gyXVtTSF0pQyg9TylbTkhdW0NASF0oW0NIM10pQyg9TylbTkhdW0NASF0oW0NIMl1jMVtjSF1jKGMoQ2wpW2NIXVtjSF0xKVtOSF0vQyhbTkgyXSk9Ti9bSF0pQyg9TylbTkhdW0NASF0oW0NIMl1bQ0gyXVtDSDJdW05IXS9DKD1OL1tIXSlbTkgyXSlDKD1PKVtOSF1bQ0BIXShbQ0gyXVtDSDJdW0NIMl1bTkhdL0MoW05IMl0pPU4vW0hdKUMoPU8pW05IXVtDQEhdKFtDSDNdKUMoPU8pW05IXVtDQEBIXShDKD1PKVtOSDJdKVtDSDJdW0NIMl1bQ0gyXVtOSF0vQyg9Ti9bSF0pW05IMl0=

> <s_epik_cmdline>
J2VwaWtfcHl0aG9uJywgJy1waCcsICc3LjAnLCAnLXRuJywgJzgnLCAnLW1hJywgJzUwMCcsICctaW1hZScsICc8aW5maWxlLm1hZT4nLCAnLW9tYWUnLCAnPG91dGZpbGUubWFlPic=

> <r_epik_Ionization_Penalty>
  0.0089

> <r_epik_Ionization_Penalty_Charging>
  0.0002

> <r_epik_Ionization_Penalty_Neutral>
  0.0086

> <r_epik_State_Penalty>
  0.0065

> <r_epik_Charging_Adjusted_Penalty>
0.00675454299108747

> <i_epik_Tot_Q>
4

> <i_epik_Tot_abs_Q>
4

> <s_epik_Chemistry_Notes>
This compound has an imine and may undergo hydrolysis.

> <i_f3d_flags>
0

> <s_lp_Force_Field>
S-OPLS

> <r_lp_Energy>
15.600738

> <b_lp_Chiralities_Consistent>
1

> <s_lp_Variant>
064-1

> <s_i_glide_gridfile>
glide-grid_D-site

> <i_i_glide_lignum>
68

> <i_i_glide_rotatable_bonds>
42

> <r_i_docking_score>
-8.67348066196825

> <r_i_glide_ligand_efficiency>
-0.125702618289395

> <r_i_glide_ligand_efficiency_sa>
-0.515577575722491

> <r_i_glide_ligand_efficiency_ln>
-1.65710817201562

> <r_glide_XP_GScore>
-8.67998066196825

> <r_i_glide_gscore>
-8.67998066196825

> <r_i_glide_evdw>
-52.4714317321777

> <r_i_glide_ecoul>
-37.4561233520508

> <r_i_glide_energy>
-89.9275550842285

> <r_i_glide_einternal>
20.0212574005127

> <r_i_glide_emodel>
-109.679504394531

> <r_glide_XP_HBond>
-3.45082393226725

> <i_i_glide_confnum>
1

> <i_i_glide_posenum>
3

> <r_i_glide_eff_state_penalty>
0.0065

> <i_glide_XP_PoseRank>
1

> <s_psp_MMGBSA_moved_residues>


> <r_psp_MMGBSA_dG_Bind>
-58.0135846767735

> <r_psp_MMGBSA_dG_Bind_Coulomb>
-638.370103493995

> <r_psp_MMGBSA_dG_Bind_Covalent>
14.5450301266192

> <r_psp_MMGBSA_dG_Bind_Hbond>
-9.26167837592664

> <r_psp_MMGBSA_dG_Bind_Lipo>
-9.10461907275112

> <r_psp_MMGBSA_dG_Bind_Packing>
-0.000976533908072952

> <r_psp_MMGBSA_dG_Bind_SelfCont>
0

> <r_psp_MMGBSA_dG_Bind_Solv_GB>
661.415159006785

> <r_psp_MMGBSA_dG_Bind_vdW>
-77.236396333612

> <r_psp_Lig_Strain_Energy>
31.7711490960216

> <r_psp_Lig_Strain_Coulomb>
17.5373813769611

> <r_psp_Lig_Strain_Covalent>
14.5450301266169

> <r_psp_Lig_Strain_Hbond>
0

> <r_psp_Lig_Strain_Lipo>
3.03157623385572

> <r_psp_Lig_Strain_Packing>
0

> <r_psp_Lig_Strain_SelfCont>
0

> <r_psp_Lig_Strain_Solv_GB>
-11.1782865320129

> <r_psp_Lig_Strain_vdW>
7.83544789060078

> <r_psp_Ligand_Energy>
-288.557741574219

> <r_psp_Ligand_Coulomb>
-94.0769716149705

> <r_psp_Ligand_Covalent>
31.8363101018769

> <r_psp_Ligand_Hbond>
0

> <r_psp_Ligand_Lipo>
-7.41903092380224

> <r_psp_Ligand_Packing>
0

> <r_psp_Ligand_SelfCont>
0

> <r_psp_Ligand_Solv_GB>
-232.798164078652

> <r_psp_Ligand_vdW>
13.9001149413289

> <r_psp_Complex_Energy>
-60553.4441944089

> <r_psp_Complex_Coulomb>
-43202.738714354

> <r_psp_Complex_Covalent>
7582.13351622627

> <r_psp_Complex_Hbond>
-777.084414150824

> <r_psp_Complex_Lipo>
-3893.57241205836

> <r_psp_Complex_Packing>
-136.010108058618

> <r_psp_Complex_SelfCont>
-172.058958621051

> <r_psp_Complex_Solv_GB>
-13067.7272220353

> <r_psp_Complex_vdW>
-6886.38588135706

> <r_psp_Receptor_Energy>
-60206.872868158

> <r_psp_Receptor_Coulomb>
-42470.291639245

> <r_psp_Receptor_Covalent>
7535.75217599777

> <r_psp_Receptor_Hbond>
-767.822735774897

> <r_psp_Receptor_Lipo>
-3877.04876206181

> <r_psp_Receptor_Packing>
-136.00913152471

> <r_psp_Receptor_SelfCont>
-172.058958621051

> <r_psp_Receptor_Solv_GB>
-13496.3442169635

> <r_psp_Receptor_vdW>
-6823.04959996478

> <r_psp_MMGBSA_dG_Bind(NS)>
-89.7847337727944

> <r_psp_MMGBSA_dG_Bind(NS)_Coulomb>
-655.907484870957

> <r_psp_MMGBSA_dG_Bind(NS)_Covalent>
1.81898940354586e-12

> <r_psp_MMGBSA_dG_Bind(NS)_Hbond>
-9.26167837592664

> <r_psp_MMGBSA_dG_Bind(NS)_Lipo>
-12.1361953066071

> <r_psp_MMGBSA_dG_Bind(NS)_Packing>
-0.000976533908072952

> <r_psp_MMGBSA_dG_Bind(NS)_SelfCont>
0

> <r_psp_MMGBSA_dG_Bind(NS)_Solv_GB>
672.593445538798

> <r_psp_MMGBSA_dG_Bind(NS)_vdW>
-85.0718442242132

> <r_psp_Rec_Strain_Energy>
0

> <r_psp_Rec_Strain_Coulomb>
0

> <r_psp_Rec_Strain_Covalent>
0

> <r_psp_Rec_Strain_Hbond>
0

> <r_psp_Rec_Strain_Lipo>
0

> <r_psp_Rec_Strain_Packing>
0

> <r_psp_Rec_Strain_SelfCont>
0

> <r_psp_Rec_Strain_Solv_GB>
0

> <r_psp_Rec_Strain_vdW>
0

> <r_psp_Prime_MMGBSA_ligand_efficiency>
-0.840776589518456

> <r_psp_Prime_MMGBSA_ligand_efficiency_sa>
-1.26116488427768

> <r_psp_Prime_MMGBSA_ligand_efficiency_ln>
-11.0837608340255

> <Name>
64

> <s_m_subgroup_title>
prime_mmgbsa_all-20230714-out

> <s_m_subgroupid>
prime_mmgbsa_all-20230714-out

> <b_m_subgroup_collapsed>
0

$$$$
