088
                    3D
 Schrodinger Suite 2021-3.
146146  0  0  1  0            999 V2000
  193.3666  206.8745  247.8178 C   0  0  0  0  0  0
  193.8993  205.8302  248.4566 N   0  0  0  0  0  0
  195.0662  205.0672  248.0100 C   0  0  1  0  0  0
  195.8916  204.6288  249.2206 C   0  0  0  0  0  0
  195.2310  204.2644  250.3236 N   0  0  0  0  0  0
  195.7410  204.2358  251.6851 C   0  0  1  0  0  0
  195.0607  205.4266  252.3629 C   0  0  0  0  0  0
  195.5559  205.7935  253.5440 N   0  0  0  0  0  0
  195.0974  206.9746  254.2530 C   0  0  1  0  0  0
  193.6391  206.8386  254.7147 C   0  0  0  0  0  0
  192.9933  207.9746  254.9488 N   0  0  0  0  0  0
  191.6456  208.0894  255.4516 C   0  0  1  0  0  0
  191.5872  209.4057  256.2275 C   0  0  0  0  0  0
  190.8107  209.3910  257.3076 N   0  0  0  0  0  0
  190.4177  210.4959  258.1607 C   0  0  1  0  0  0
  191.3141  210.7079  259.3884 C   0  0  0  0  0  0
  190.6862  210.8685  260.5541 N   0  0  0  0  0  0
  192.2992  207.6626  248.5601 C   0  0  0  0  0  0
  193.7110  207.2217  246.6905 O   0  0  0  0  0  0
  194.6789  203.9443  247.0178 C   0  0  0  0  0  0
  195.8807  202.5994  246.7447 S   0  5  0  0  0  0
  197.1105  204.6347  249.1540 O   0  0  0  0  0  0
  195.3228  202.8966  252.3445 C   0  0  0  0  0  0
  194.1334  206.0313  251.8131 O   0  0  0  0  0  0
  196.0494  207.2413  255.4344 C   0  0  0  0  0  0
  195.8658  208.6084  256.0638 C   0  0  0  0  0  0
  193.1098  205.7386  254.8522 O   0  0  0  0  0  0
  190.6097  207.9124  254.3094 C   0  0  0  0  0  0
  191.2906  211.2380  261.8220 C   0  0  1  0  0  0
  190.2465  212.0208  262.6312 C   0  0  0  0  0  0
  190.6947  212.7141  263.6769 N   0  0  0  0  0  0
  189.8680  213.3279  264.7053 C   0  0  1  0  0  0
  190.7324  213.3536  265.9624 C   0  0  0  0  0  0
  192.2279  210.3882  255.8470 O   0  0  0  0  0  0
  192.5355  210.7607  259.2856 O   0  0  0  0  0  0
  191.9129  209.9960  262.5094 C   0  0  0  0  0  0
  189.0583  212.0032  262.3114 O   0  0  0  0  0  0
  191.8304  214.0932  265.9173 N   0  0  0  0  0  0
  190.5129  212.5993  266.9027 O   0  0  0  0  0  0
  189.2406  214.6651  264.2384 C   0  0  0  0  0  0
  190.2313  215.7593  263.8008 C   0  0  0  0  0  0
  189.9113  211.7591  257.4109 C   0  0  0  0  0  0
  189.5244  212.9532  258.3117 C   0  0  0  0  0  0
  188.5516  213.9416  257.6455 C   0  0  0  0  0  0
  187.2945  214.0450  258.4038 N   0  0  0  0  0  0
  186.3969  215.0401  258.3265 C   0  0  0  0  0  0
  186.5832  216.0903  257.5186 N   0  0  0  0  0  0
  185.2949  214.9764  259.0716 N   0  3  0  0  0  0
  189.5689  216.8936  263.0135 C   0  0  0  0  0  0
  190.5800  217.8694  262.5913 N   0  0  0  0  0  0
  191.2372  217.9129  261.4248 C   0  0  0  0  0  0
  192.1519  218.8699  261.2560 N   0  3  0  0  0  0
  191.0038  217.0260  260.4498 N   0  0  0  0  0  0
  195.6379  202.6536  253.8335 C   0  0  0  0  0  0
  196.5548  200.6372  255.0115 N   0  0  0  0  0  0
  195.4213  201.1751  254.2363 C   0  0  0  0  0  0
  197.5237  199.8190  254.5568 C   0  0  0  0  0  0
  198.5190  199.4436  255.3627 N   0  3  0  0  0  0
  197.5514  199.3703  253.2990 N   0  0  0  0  0  0
  196.0056  209.7663  255.2698 C   0  0  0  0  0  0
  195.7588  211.0292  255.8349 C   0  0  0  0  0  0
  195.4116  211.1549  257.1945 C   0  0  0  0  0  0
  195.2798  209.9975  257.9838 C   0  0  0  0  0  0
  195.4895  208.7261  257.4170 C   0  0  0  0  0  0
  195.7788  212.1853  254.9815 N   0  0  0  0  0  0
  196.4752  213.2945  255.2857 C   0  0  0  0  0  0
  197.4340  213.3094  256.2161 N   0  0  0  0  0  0
  196.2290  214.4181  254.6054 N   0  3  0  0  0  0
  190.7918  208.9315  253.1667 C   0  0  0  0  0  0
  189.1535  207.9032  254.8140 C   0  0  0  0  0  0
  192.4256  210.2584  263.8077 O   0  0  0  0  0  0
  193.5894  205.6840  249.4101 H   0  0  0  0  0  0
  195.7256  205.7506  247.4688 H   0  0  0  0  0  0
  194.2175  204.3183  250.2847 H   0  0  0  0  0  0
  196.8256  204.3658  251.7076 H   0  0  0  0  0  0
  196.3427  205.2877  253.9102 H   0  0  0  0  0  0
  195.1359  207.8078  253.5506 H   0  0  0  0  0  0
  193.4785  208.8565  254.8579 H   0  0  0  0  0  0
  191.4928  207.2828  256.1723 H   0  0  0  0  0  0
  190.3913  208.5018  257.5330 H   0  0  0  0  0  0
  189.5290  210.0329  258.5640 H   0  0  0  0  0  0
  189.6685  210.8465  260.5696 H   0  0  0  0  0  0
  191.3384  207.5579  248.0567 H   0  0  0  0  0  0
  192.5599  208.7204  248.5774 H   0  0  0  0  0  0
  192.1906  207.3261  249.5923 H   0  0  0  0  0  0
  193.7443  203.4885  247.3214 H   0  0  0  0  0  0
  194.4727  204.3940  246.0450 H   0  0  0  0  0  0
  194.2484  202.7624  252.2338 H   0  0  0  0  0  0
  195.8186  202.1114  251.7749 H   0  0  0  0  0  0
  195.9383  206.4638  256.1920 H   0  0  0  0  0  0
  197.0839  207.1881  255.0912 H   0  0  0  0  0  0
  190.7861  206.9256  253.8786 H   0  0  0  0  0  0
  192.0991  211.9423  261.6141 H   0  0  0  0  0  0
  191.6720  212.5937  263.9133 H   0  0  0  0  0  0
  189.0428  212.6449  264.9229 H   0  0  0  0  0  0
  191.1772  209.1934  262.5845 H   0  0  0  0  0  0
  192.7291  209.6110  261.8962 H   0  0  0  0  0  0
  192.0261  214.6990  265.1365 H   0  0  0  0  0  0
  192.5695  213.8780  266.5868 H   0  0  0  0  0  0
  188.5634  214.4471  263.4114 H   0  0  0  0  0  0
  188.6055  215.0573  265.0338 H   0  0  0  0  0  0
  190.7204  216.1824  264.6782 H   0  0  0  0  0  0
  191.0163  215.3251  263.1807 H   0  0  0  0  0  0
  190.6574  212.1148  256.7015 H   0  0  0  0  0  0
  189.0505  211.4613  256.8118 H   0  0  0  0  0  0
  189.0874  212.6047  259.2444 H   0  0  0  0  0  0
  190.4321  213.4809  258.6079 H   0  0  0  0  0  0
  189.0191  214.9254  257.5996 H   0  0  0  0  0  0
  188.3218  213.6579  256.6178 H   0  0  0  0  0  0
  187.0774  213.2520  259.0023 H   0  0  0  0  0  0
  185.8989  216.8307  257.4691 H   0  0  0  0  0  0
  187.4053  216.1488  256.9374 H   0  0  0  0  0  0
  184.5233  215.6329  258.9998 H   0  0  0  0  0  0
  189.0264  216.5119  262.1484 H   0  0  0  0  0  0
  188.8380  217.4048  263.6408 H   0  0  0  0  0  0
  190.8438  218.5690  263.2828 H   0  0  0  0  0  0
  192.6945  218.9598  260.4104 H   0  0  0  0  0  0
  191.5088  217.0647  259.5769 H   0  0  0  0  0  0
  190.3117  216.3034  260.5794 H   0  0  0  0  0  0
  196.6515  202.9753  254.0646 H   0  0  0  0  0  0
  194.9834  203.2794  254.4381 H   0  0  0  0  0  0
  196.6018  200.9558  255.9675 H   0  0  0  0  0  0
  194.5212  201.0919  254.8426 H   0  0  0  0  0  0
  195.2362  200.5431  253.3679 H   0  0  0  0  0  0
  199.2926  198.9355  254.9393 H   0  0  0  0  0  0
  198.3893  198.8808  252.9921 H   0  0  0  0  0  0
  196.9167  199.7455  252.6135 H   0  0  0  0  0  0
  196.2727  209.6841  254.2246 H   0  0  0  0  0  0
  195.1994  212.1227  257.6250 H   0  0  0  0  0  0
  194.9800  210.0862  259.0179 H   0  0  0  0  0  0
  195.3420  207.8428  258.0214 H   0  0  0  0  0  0
  195.4156  212.1096  254.0422 H   0  0  0  0  0  0
  197.8967  214.1617  256.4918 H   0  0  0  0  0  0
  197.8020  212.4273  256.5736 H   0  0  0  0  0  0
  196.7358  215.2678  254.8053 H   0  0  0  0  0  0
  190.6119  209.9540  253.4986 H   0  0  0  0  0  0
  191.7956  208.8878  252.7440 H   0  0  0  0  0  0
  190.1049  208.7300  252.3459 H   0  0  0  0  0  0
  188.8472  208.8775  255.1951 H   0  0  0  0  0  0
  188.4644  207.6354  254.0124 H   0  0  0  0  0  0
  189.0151  207.1714  255.6098 H   0  0  0  0  0  0
  191.7259  210.1209  264.4343 H   0  0  0  0  0  0
  192.3182  219.5150  262.0257 H   0  0  0  0  0  0
  185.0742  214.1280  259.5951 H   0  0  0  0  0  0
  198.5850  199.7370  256.3232 H   0  0  0  0  0  0
  195.4794  214.4530  253.9292 H   0  0  0  0  0  0
  1  2  1  0  0  0
  1 18  1  0  0  0
  1 19  2  0  0  0
  2  3  1  0  0  0
  2 72  1  0  0  0
  3  4  1  0  0  0
  3 20  1  0  0  0
  3 73  1  0  0  0
  4  5  1  0  0  0
  4 22  2  0  0  0
  5  6  1  0  0  0
  5 74  1  0  0  0
  6  7  1  0  0  0
  6 23  1  0  0  0
  6 75  1  0  0  0
  7  8  1  0  0  0
  7 24  2  0  0  0
  8  9  1  0  0  0
  8 76  1  0  0  0
  9 10  1  0  0  0
  9 25  1  0  0  0
  9 77  1  0  0  0
 10 11  1  0  0  0
 10 27  2  0  0  0
 11 12  1  0  0  0
 11 78  1  0  0  0
 12 13  1  0  0  0
 12 28  1  0  0  0
 12 79  1  0  0  0
 13 14  1  0  0  0
 13 34  2  0  0  0
 14 15  1  0  0  0
 14 80  1  0  0  0
 15 16  1  0  0  0
 15 42  1  0  0  0
 15 81  1  0  0  0
 16 17  1  0  0  0
 16 35  2  0  0  0
 17 29  1  0  0  0
 17 82  1  0  0  0
 18 83  1  0  0  0
 18 84  1  0  0  0
 18 85  1  0  0  0
 20 21  1  0  0  0
 20 86  1  0  0  0
 20 87  1  0  0  0
 23 54  1  0  0  0
 23 88  1  0  0  0
 23 89  1  0  0  0
 25 26  1  0  0  0
 25 90  1  0  0  0
 25 91  1  0  0  0
 26 60  2  0  0  0
 26 64  1  0  0  0
 28 69  1  0  0  0
 28 70  1  0  0  0
 28 92  1  0  0  0
 29 30  1  0  0  0
 29 36  1  0  0  0
 29 93  1  0  0  0
 30 31  1  0  0  0
 30 37  2  0  0  0
 31 32  1  0  0  0
 31 94  1  0  0  0
 32 33  1  0  0  0
 32 40  1  0  0  0
 32 95  1  0  0  0
 33 38  1  0  0  0
 33 39  2  0  0  0
 36 71  1  0  0  0
 36 96  1  0  0  0
 36 97  1  0  0  0
 38 98  1  0  0  0
 38 99  1  0  0  0
 40 41  1  0  0  0
 40100  1  0  0  0
 40101  1  0  0  0
 41 49  1  0  0  0
 41102  1  0  0  0
 41103  1  0  0  0
 42 43  1  0  0  0
 42104  1  0  0  0
 42105  1  0  0  0
 43 44  1  0  0  0
 43106  1  0  0  0
 43107  1  0  0  0
 44 45  1  0  0  0
 44108  1  0  0  0
 44109  1  0  0  0
 45 46  1  0  0  0
 45110  1  0  0  0
 46 47  1  0  0  0
 46 48  2  0  0  0
 47111  1  0  0  0
 47112  1  0  0  0
 48113  1  0  0  0
 48144  1  0  0  0
 49 50  1  0  0  0
 49114  1  0  0  0
 49115  1  0  0  0
 50 51  1  0  0  0
 50116  1  0  0  0
 51 52  2  0  0  0
 51 53  1  0  0  0
 52117  1  0  0  0
 52143  1  0  0  0
 53118  1  0  0  0
 53119  1  0  0  0
 54 56  1  0  0  0
 54120  1  0  0  0
 54121  1  0  0  0
 55 56  1  0  0  0
 55 57  1  0  0  0
 55122  1  0  0  0
 56123  1  0  0  0
 56124  1  0  0  0
 57 58  2  0  0  0
 57 59  1  0  0  0
 58125  1  0  0  0
 58145  1  0  0  0
 59126  1  0  0  0
 59127  1  0  0  0
 60 61  1  0  0  0
 60128  1  0  0  0
 61 62  2  0  0  0
 61 65  1  0  0  0
 62 63  1  0  0  0
 62129  1  0  0  0
 63 64  2  0  0  0
 63130  1  0  0  0
 64131  1  0  0  0
 65 66  1  0  0  0
 65132  1  0  0  0
 66 67  1  0  0  0
 66 68  2  0  0  0
 67133  1  0  0  0
 67134  1  0  0  0
 68135  1  0  0  0
 68146  1  0  0  0
 69136  1  0  0  0
 69137  1  0  0  0
 69138  1  0  0  0
 70139  1  0  0  0
 70140  1  0  0  0
 70141  1  0  0  0
 71142  1  0  0  0
M  CHG  5  21  -1  48   1  52   1  58   1  68   1
M  END
> <s_m_entry_id>
9

> <s_m_entry_name>
088.1

> <s_m_Source_Path>
D:\xubinbin\STS005\supp

> <s_m_Source_File>
088.sdf

> <i_m_Source_File_Index>
1

> <s_psp_Prime_MMGBSA_Input_Structure_Hash>
b8b97543364af62847a88ed9578423569bdfad0c7bd769c2d6385e44

> <i_psp_number_heavy_atoms>
71

> <b_psp_distorted_structure>
1

> <i_psp_model_num>
0

> <r_psp_Prime_Coulomb>
-43947.3301356167

> <r_psp_Prime_Covalent>
9867.0152085146

> <r_psp_Prime_vdW>
-7439.10318975175

> <r_psp_Prime_Lipo>
-8661.32115667268

> <r_psp_Prime_Solv_GB>
-12035.3518668395

> <r_psp_Prime_Energy>
-63722.700729411

> <s_psp_Prime_Energy_Force_Field>
OPLS_2005

> <s_psp_Prime_Energy_Solvent_Model>
VSGB2.0

> <r_psp_Prime_Bond_Covalent>
1002.58135717116

> <r_psp_Prime_Bond_SGB>
109889.814048596

> <r_psp_Prime_Angle_Covalent>
2793.63991941806

> <r_psp_Prime_Angle_SGB>
-43058.7339152295

> <r_psp_Prime_Torsion_Covalent>
6070.79393192539

> <r_psp_Prime_NB14_LJ>
7637.20169256132

> <r_psp_Prime_NB14_Lipo>
0

> <r_psp_Prime_NB14_Elec>
47979.6047680436

> <r_psp_Prime_NB14_SGB>
-41182.3122977801

> <r_psp_Prime_NBShort_LJ>
-14324.5087074761

> <r_psp_Prime_NBShort_Lipo>
-8661.32115667268

> <r_psp_Prime_NBShort_Elec>
-95680.7992145388

> <r_psp_Prime_NBShort_SGB>
44944.7947176092

> <r_psp_Prime_NBLong_LJ>
-751.796174836969

> <r_psp_Prime_NBLong_Lipo>
0

> <r_psp_Prime_NBLong_Elec>
3753.86431087848

> <r_psp_Prime_NBLong_SGB>
-3575.8185674758

> <r_psp_Prime_Self_SGB>
-79053.0958525592

> <r_psp_Prime_Hbond>
-511.732786580143

> <r_psp_Prime_Packing>
-47.5927997581646

> <r_psp_Prime_SelfCont>
-947.284002706662

> <i_lp_mmshare_version>
55137

> <s_epik_input>
W0hdXE49QyhbTkgyXSlcW05IXVtDSDJdW0NIMl1bQ0gyXVtDQEBIXShbTkhdQyg9TylbQ0BASF0oW0NIMl1bU0hdKVtOSF1DKD1PKVtDSDNdKUMoPU8pW05IXVtDQEhdKFtDSDJdYzFbY0hdYyhbY0hdW2NIXVtjSF0xKVtOSF0vQyhbTkgyXSk9Ti9bSF0pQyg9TylbTkhdW0NASF0oW0NIXShbQ0gzXSlbQ0gzXSlDKD1PKVtOSF1bQ0BIXShbQ0gyXVtDSDJdW0NIMl1bTkhdL0MoW05IMl0pPU4vW0hdKUMoPU8pW05IXVtDQEhdKFtDSDJdW09IXSlDKD1PKVtOSF1bQ0BASF0oQyg9TylbTkgyXSlbQ0gyXVtDSDJdW0NIMl1bTkhdL0MoPU4vW0hdKVtOSDJd

> <s_epik_cmdline>
J2VwaWtfcHl0aG9uJywgJy1waCcsICc3LjAnLCAnLXRuJywgJzgnLCAnLW1hJywgJzUwMCcsICctaW1hZScsICc8aW5maWxlLm1hZT4nLCAnLW9tYWUnLCAnPG91dGZpbGUubWFlPic=

> <r_epik_Ionization_Penalty>
  2.5081

> <r_epik_Ionization_Penalty_Charging>
  2.5081

> <r_epik_Ionization_Penalty_Neutral>
  0.0000

> <r_epik_State_Penalty>
  2.6735

> <r_epik_Charging_Adjusted_Penalty>
5.18156231354267

> <i_epik_Tot_Q>
3

> <i_epik_Tot_abs_Q>
5

> <s_epik_Chemistry_Notes>
This compound has an imine and may undergo hydrolysis.

> <i_f3d_flags>
0

> <s_lp_Force_Field>
OPLS_2005

> <r_lp_Energy>
18.2194

> <b_lp_Chiralities_Consistent>
1

> <s_lp_Variant>
088-1

> <s_i_glide_gridfile>
glide-grid_D-site

> <i_i_glide_lignum>
1

> <i_i_glide_rotatable_bonds>
44

> <r_i_docking_score>
-4.32695979244533

> <r_i_glide_ligand_efficiency>
-0.0609430956682441

> <r_i_glide_ligand_efficiency_sa>
-0.252354251889272

> <r_i_glide_ligand_efficiency_ln>
-0.822197035263705

> <r_glide_XP_GScore>
-7.00045979244533

> <r_i_glide_gscore>
-7.00045979244533

> <r_i_glide_evdw>
-50.9245834350586

> <r_i_glide_ecoul>
-28.1325187683105

> <r_i_glide_energy>
-79.0571022033691

> <r_i_glide_einternal>
20.4670677185059

> <r_i_glide_emodel>
-86.5803527832031

> <r_glide_XP_HBond>
-2.48

> <i_i_glide_confnum>
1

> <i_i_glide_posenum>
1

> <r_i_glide_eff_state_penalty>
2.6735

> <i_glide_XP_PoseRank>
1

> <s_psp_MMGBSA_moved_residues>


> <r_psp_MMGBSA_dG_Bind>
-78.4543650082487

> <r_psp_MMGBSA_dG_Bind_Coulomb>
-221.752665528191

> <r_psp_MMGBSA_dG_Bind_Covalent>
14.0377277076259

> <r_psp_MMGBSA_dG_Bind_Hbond>
-20.3038529840682

> <r_psp_MMGBSA_dG_Bind_Lipo>
-24.7263025898119

> <r_psp_MMGBSA_dG_Bind_Packing>
-0.0945679792731369

> <r_psp_MMGBSA_dG_Bind_SelfCont>
0

> <r_psp_MMGBSA_dG_Bind_Solv_GB>
234.519697976326

> <r_psp_MMGBSA_dG_Bind_vdW>
-60.1344016108796

> <r_psp_Lig_Strain_Energy>
43.4113398192038

> <r_psp_Lig_Strain_Coulomb>
-18.1027928326252

> <r_psp_Lig_Strain_Covalent>
14.0377277076289

> <r_psp_Lig_Strain_Hbond>
0

> <r_psp_Lig_Strain_Lipo>
15.7780120117608

> <r_psp_Lig_Strain_Packing>
0

> <r_psp_Lig_Strain_SelfCont>
0

> <r_psp_Lig_Strain_Solv_GB>
18.32035940073

> <r_psp_Lig_Strain_vdW>
13.3780335317091

> <r_psp_Ligand_Energy>
-339.613878555053

> <r_psp_Ligand_Coulomb>
-105.810298849711

> <r_psp_Ligand_Covalent>
34.1622214285302

> <r_psp_Ligand_Hbond>
0

> <r_psp_Ligand_Lipo>
-30.2249673430086

> <r_psp_Ligand_Packing>
0

> <r_psp_Ligand_SelfCont>
0

> <r_psp_Ligand_Solv_GB>
-235.510455032488

> <r_psp_Ligand_vdW>
-2.23037875837574

> <r_psp_Complex_Energy>
-63722.700729411

> <r_psp_Complex_Coulomb>
-43947.3301356167

> <r_psp_Complex_Covalent>
9867.0152085146

> <r_psp_Complex_Hbond>
-511.732786580143

> <r_psp_Complex_Lipo>
-8661.32115667268

> <r_psp_Complex_Packing>
-47.5927997581646

> <r_psp_Complex_SelfCont>
-947.284002706662

> <r_psp_Complex_Solv_GB>
-12035.3518668395

> <r_psp_Complex_vdW>
-7439.10318975175

> <r_psp_Receptor_Energy>
-63304.6324858477

> <r_psp_Receptor_Coulomb>
-43619.7671712388

> <r_psp_Receptor_Covalent>
9818.81525937845

> <r_psp_Receptor_Hbond>
-491.428933596075

> <r_psp_Receptor_Lipo>
-8606.36988673986

> <r_psp_Receptor_Packing>
-47.4982317788914

> <r_psp_Receptor_SelfCont>
-947.284002706662

> <r_psp_Receptor_Solv_GB>
-12034.3611097834

> <r_psp_Receptor_vdW>
-7376.73840938249

> <r_psp_MMGBSA_dG_Bind(NS)>
-121.865704827447

> <r_psp_MMGBSA_dG_Bind(NS)_Coulomb>
-203.649872695569

> <r_psp_MMGBSA_dG_Bind(NS)_Covalent>
-1.81898940354586e-12

> <r_psp_MMGBSA_dG_Bind(NS)_Hbond>
-20.3038529840682

> <r_psp_MMGBSA_dG_Bind(NS)_Lipo>
-40.5043146015723

> <r_psp_MMGBSA_dG_Bind(NS)_Packing>
-0.0945679792731369

> <r_psp_MMGBSA_dG_Bind(NS)_SelfCont>
0

> <r_psp_MMGBSA_dG_Bind(NS)_Solv_GB>
216.199338575596

> <r_psp_MMGBSA_dG_Bind(NS)_vdW>
-73.5124351425893

> <r_psp_Rec_Strain_Energy>
0

> <r_psp_Rec_Strain_Coulomb>
0

> <r_psp_Rec_Strain_Covalent>
0

> <r_psp_Rec_Strain_Hbond>
0

> <r_psp_Rec_Strain_Lipo>
0

> <r_psp_Rec_Strain_Packing>
0

> <r_psp_Rec_Strain_SelfCont>
0

> <r_psp_Rec_Strain_Solv_GB>
0

> <r_psp_Rec_Strain_vdW>
0

> <r_psp_Prime_MMGBSA_ligand_efficiency>
-1.10499105645421

> <r_psp_Prime_MMGBSA_ligand_efficiency_sa>
-1.65748658468131

> <r_psp_Prime_MMGBSA_ligand_efficiency_ln>
-14.907683317488

> <Name>
88

> <s_m_source_file>
ligprep_088.maegz

> <i_m_source_file_index>
1

> <s_m_job_name>
prime_mmgbsa_088

> <s_m_subgroup_title>
prime_mmgbsa_088-out1

> <s_m_subgroupid>
prime_mmgbsa_088-out1

> <b_m_subgroup_collapsed>
0

$$$$
